<routes>
        <vType id="typeWE" accel="0.8" decel="4.5" sigma="0.5" length="5" minGap="2.5" maxSpeed="16.67" guiShape="passenger"/>
        <vType id="typeNS" accel="0.8" decel="4.5" sigma="0.5" length="7" minGap="3" maxSpeed="25" guiShape="bus"/>

        <route id="right" edges="51o 1i 2o 52i" />
        <route id="left" edges="52o 2i 1o 51i" />
        <route id="down" edges="54o 4i 3o 53i" />
    <vehicle id="left_0" type="typeWE" route="left" depart="0" />
    <vehicle id="left_1" type="typeWE" route="left" depart="2" />
    <vehicle id="right_2" type="typeWE" route="right" depart="3" />
    <vehicle id="right_3" type="typeWE" route="right" depart="4" />
    <vehicle id="left_4" type="typeWE" route="left" depart="6" />
    <vehicle id="right_5" type="typeWE" route="right" depart="9" />
    <vehicle id="down_6" type="typeNS" route="down" depart="13" color="1,0,0"/>
    <vehicle id="left_7" type="typeWE" route="left" depart="22" />
    <vehicle id="down_8" type="typeNS" route="down" depart="29" color="1,0,0"/>
    <vehicle id="left_9" type="typeWE" route="left" depart="31" />
    <vehicle id="left_10" type="typeWE" route="left" depart="33" />
    <vehicle id="left_11" type="typeWE" route="left" depart="41" />
    <vehicle id="right_12" type="typeWE" route="right" depart="42" />
    <vehicle id="left_13" type="typeWE" route="left" depart="45" />
    <vehicle id="left_14" type="typeWE" route="left" depart="53" />
    <vehicle id="right_15" type="typeWE" route="right" depart="55" />
    <vehicle id="right_16" type="typeWE" route="right" depart="61" />
    <vehicle id="right_17" type="typeWE" route="right" depart="69" />
    <vehicle id="right_18" type="typeWE" route="right" depart="84" />
    <vehicle id="left_19" type="typeWE" route="left" depart="85" />
    <vehicle id="down_20" type="typeNS" route="down" depart="89" color="1,0,0"/>
    <vehicle id="down_21" type="typeNS" route="down" depart="96" color="1,0,0"/>
    <vehicle id="right_22" type="typeWE" route="right" depart="99" />
    <vehicle id="left_23" type="typeWE" route="left" depart="99" />
    <vehicle id="right_24" type="typeWE" route="right" depart="108" />
    <vehicle id="right_25" type="typeWE" route="right" depart="114" />
    <vehicle id="down_26" type="typeNS" route="down" depart="122" color="1,0,0"/>
    <vehicle id="right_27" type="typeWE" route="right" depart="125" />
    <vehicle id="left_28" type="typeWE" route="left" depart="131" />
    <vehicle id="left_29" type="typeWE" route="left" depart="135" />
    <vehicle id="left_30" type="typeWE" route="left" depart="138" />
    <vehicle id="left_31" type="typeWE" route="left" depart="142" />
    <vehicle id="right_32" type="typeWE" route="right" depart="145" />
    <vehicle id="left_33" type="typeWE" route="left" depart="153" />
    <vehicle id="left_34" type="typeWE" route="left" depart="156" />
    <vehicle id="left_35" type="typeWE" route="left" depart="160" />
    <vehicle id="left_36" type="typeWE" route="left" depart="164" />
    <vehicle id="right_37" type="typeWE" route="right" depart="167" />
    <vehicle id="right_38" type="typeWE" route="right" depart="168" />
    <vehicle id="left_39" type="typeWE" route="left" depart="169" />
    <vehicle id="left_40" type="typeWE" route="left" depart="172" />
    <vehicle id="down_41" type="typeNS" route="down" depart="172" color="1,0,0"/>
    <vehicle id="right_42" type="typeWE" route="right" depart="176" />
    <vehicle id="right_43" type="typeWE" route="right" depart="181" />
    <vehicle id="right_44" type="typeWE" route="right" depart="183" />
    <vehicle id="left_45" type="typeWE" route="left" depart="194" />
    <vehicle id="left_46" type="typeWE" route="left" depart="196" />
    <vehicle id="left_47" type="typeWE" route="left" depart="199" />
    <vehicle id="right_48" type="typeWE" route="right" depart="200" />
    <vehicle id="left_49" type="typeWE" route="left" depart="212" />
    <vehicle id="right_50" type="typeWE" route="right" depart="217" />
    <vehicle id="left_51" type="typeWE" route="left" depart="219" />
    <vehicle id="right_52" type="typeWE" route="right" depart="228" />
    <vehicle id="left_53" type="typeWE" route="left" depart="234" />
    <vehicle id="left_54" type="typeWE" route="left" depart="238" />
    <vehicle id="down_55" type="typeNS" route="down" depart="238" color="1,0,0"/>
    <vehicle id="right_56" type="typeWE" route="right" depart="240" />
    <vehicle id="down_57" type="typeNS" route="down" depart="242" color="1,0,0"/>
    <vehicle id="left_58" type="typeWE" route="left" depart="272" />
    <vehicle id="left_59" type="typeWE" route="left" depart="275" />
    <vehicle id="down_60" type="typeNS" route="down" depart="283" color="1,0,0"/>
    <vehicle id="right_61" type="typeWE" route="right" depart="284" />
    <vehicle id="right_62" type="typeWE" route="right" depart="286" />
    <vehicle id="right_63" type="typeWE" route="right" depart="288" />
    <vehicle id="right_64" type="typeWE" route="right" depart="291" />
    <vehicle id="right_65" type="typeWE" route="right" depart="294" />
    <vehicle id="down_66" type="typeNS" route="down" depart="302" color="1,0,0"/>
    <vehicle id="down_67" type="typeNS" route="down" depart="318" color="1,0,0"/>
    <vehicle id="right_68" type="typeWE" route="right" depart="322" />
    <vehicle id="down_69" type="typeNS" route="down" depart="331" color="1,0,0"/>
    <vehicle id="down_70" type="typeNS" route="down" depart="337" color="1,0,0"/>
    <vehicle id="left_71" type="typeWE" route="left" depart="339" />
    <vehicle id="right_72" type="typeWE" route="right" depart="342" />
    <vehicle id="left_73" type="typeWE" route="left" depart="344" />
    <vehicle id="down_74" type="typeNS" route="down" depart="344" color="1,0,0"/>
    <vehicle id="left_75" type="typeWE" route="left" depart="346" />
    <vehicle id="down_76" type="typeNS" route="down" depart="349" color="1,0,0"/>
    <vehicle id="right_77" type="typeWE" route="right" depart="354" />
    <vehicle id="right_78" type="typeWE" route="right" depart="375" />
    <vehicle id="down_79" type="typeNS" route="down" depart="377" color="1,0,0"/>
    <vehicle id="down_80" type="typeNS" route="down" depart="379" color="1,0,0"/>
    <vehicle id="right_81" type="typeWE" route="right" depart="383" />
    <vehicle id="left_82" type="typeWE" route="left" depart="388" />
    <vehicle id="left_83" type="typeWE" route="left" depart="389" />
    <vehicle id="left_84" type="typeWE" route="left" depart="391" />
    <vehicle id="right_85" type="typeWE" route="right" depart="394" />
    <vehicle id="down_86" type="typeNS" route="down" depart="394" color="1,0,0"/>
    <vehicle id="right_87" type="typeWE" route="right" depart="395" />
    <vehicle id="down_88" type="typeNS" route="down" depart="397" color="1,0,0"/>
    <vehicle id="right_89" type="typeWE" route="right" depart="412" />
    <vehicle id="left_90" type="typeWE" route="left" depart="413" />
    <vehicle id="left_91" type="typeWE" route="left" depart="415" />
    <vehicle id="left_92" type="typeWE" route="left" depart="420" />
    <vehicle id="right_93" type="typeWE" route="right" depart="427" />
    <vehicle id="down_94" type="typeNS" route="down" depart="440" color="1,0,0"/>
    <vehicle id="down_95" type="typeNS" route="down" depart="457" color="1,0,0"/>
    <vehicle id="right_96" type="typeWE" route="right" depart="458" />
    <vehicle id="down_97" type="typeNS" route="down" depart="459" color="1,0,0"/>
    <vehicle id="down_98" type="typeNS" route="down" depart="463" color="1,0,0"/>
    <vehicle id="right_99" type="typeWE" route="right" depart="464" />
    <vehicle id="right_100" type="typeWE" route="right" depart="467" />
    <vehicle id="left_101" type="typeWE" route="left" depart="469" />
    <vehicle id="left_102" type="typeWE" route="left" depart="472" />
    <vehicle id="right_103" type="typeWE" route="right" depart="473" />
    <vehicle id="left_104" type="typeWE" route="left" depart="476" />
    <vehicle id="right_105" type="typeWE" route="right" depart="479" />
    <vehicle id="right_106" type="typeWE" route="right" depart="482" />
    <vehicle id="left_107" type="typeWE" route="left" depart="483" />
    <vehicle id="right_108" type="typeWE" route="right" depart="484" />
    <vehicle id="left_109" type="typeWE" route="left" depart="492" />
    <vehicle id="right_110" type="typeWE" route="right" depart="494" />
    <vehicle id="left_111" type="typeWE" route="left" depart="496" />
    <vehicle id="down_112" type="typeNS" route="down" depart="501" color="1,0,0"/>
    <vehicle id="right_113" type="typeWE" route="right" depart="502" />
    <vehicle id="left_114" type="typeWE" route="left" depart="514" />
    <vehicle id="down_115" type="typeNS" route="down" depart="518" color="1,0,0"/>
    <vehicle id="right_116" type="typeWE" route="right" depart="523" />
    <vehicle id="left_117" type="typeWE" route="left" depart="527" />
    <vehicle id="right_118" type="typeWE" route="right" depart="536" />
    <vehicle id="left_119" type="typeWE" route="left" depart="536" />
    <vehicle id="left_120" type="typeWE" route="left" depart="541" />
    <vehicle id="left_121" type="typeWE" route="left" depart="552" />
    <vehicle id="left_122" type="typeWE" route="left" depart="554" />
    <vehicle id="right_123" type="typeWE" route="right" depart="565" />
    <vehicle id="down_124" type="typeNS" route="down" depart="573" color="1,0,0"/>
    <vehicle id="left_125" type="typeWE" route="left" depart="578" />
    <vehicle id="left_126" type="typeWE" route="left" depart="579" />
    <vehicle id="left_127" type="typeWE" route="left" depart="582" />
    <vehicle id="left_128" type="typeWE" route="left" depart="602" />
    <vehicle id="left_129" type="typeWE" route="left" depart="606" />
    <vehicle id="right_130" type="typeWE" route="right" depart="612" />
    <vehicle id="down_131" type="typeNS" route="down" depart="624" color="1,0,0"/>
    <vehicle id="left_132" type="typeWE" route="left" depart="634" />
    <vehicle id="left_133" type="typeWE" route="left" depart="635" />
    <vehicle id="right_134" type="typeWE" route="right" depart="636" />
    <vehicle id="left_135" type="typeWE" route="left" depart="641" />
    <vehicle id="right_136" type="typeWE" route="right" depart="644" />
    <vehicle id="left_137" type="typeWE" route="left" depart="646" />
    <vehicle id="down_138" type="typeNS" route="down" depart="653" color="1,0,0"/>
    <vehicle id="right_139" type="typeWE" route="right" depart="654" />
    <vehicle id="left_140" type="typeWE" route="left" depart="659" />
    <vehicle id="left_141" type="typeWE" route="left" depart="660" />
    <vehicle id="left_142" type="typeWE" route="left" depart="661" />
    <vehicle id="left_143" type="typeWE" route="left" depart="663" />
    <vehicle id="right_144" type="typeWE" route="right" depart="668" />
    <vehicle id="left_145" type="typeWE" route="left" depart="683" />
    <vehicle id="right_146" type="typeWE" route="right" depart="701" />
    <vehicle id="right_147" type="typeWE" route="right" depart="704" />
    <vehicle id="down_148" type="typeNS" route="down" depart="706" color="1,0,0"/>
    <vehicle id="left_149" type="typeWE" route="left" depart="707" />
    <vehicle id="down_150" type="typeNS" route="down" depart="708" color="1,0,0"/>
    <vehicle id="left_151" type="typeWE" route="left" depart="717" />
    <vehicle id="down_152" type="typeNS" route="down" depart="717" color="1,0,0"/>
    <vehicle id="right_153" type="typeWE" route="right" depart="720" />
    <vehicle id="down_154" type="typeNS" route="down" depart="720" color="1,0,0"/>
    <vehicle id="left_155" type="typeWE" route="left" depart="722" />
    <vehicle id="right_156" type="typeWE" route="right" depart="724" />
    <vehicle id="right_157" type="typeWE" route="right" depart="731" />
    <vehicle id="down_158" type="typeNS" route="down" depart="733" color="1,0,0"/>
    <vehicle id="right_159" type="typeWE" route="right" depart="738" />
    <vehicle id="left_160" type="typeWE" route="left" depart="740" />
    <vehicle id="left_161" type="typeWE" route="left" depart="743" />
    <vehicle id="right_162" type="typeWE" route="right" depart="744" />
    <vehicle id="right_163" type="typeWE" route="right" depart="746" />
    <vehicle id="left_164" type="typeWE" route="left" depart="749" />
    <vehicle id="left_165" type="typeWE" route="left" depart="768" />
    <vehicle id="left_166" type="typeWE" route="left" depart="774" />
    <vehicle id="down_167" type="typeNS" route="down" depart="776" color="1,0,0"/>
    <vehicle id="down_168" type="typeNS" route="down" depart="780" color="1,0,0"/>
    <vehicle id="down_169" type="typeNS" route="down" depart="791" color="1,0,0"/>
    <vehicle id="left_170" type="typeWE" route="left" depart="801" />
    <vehicle id="right_171" type="typeWE" route="right" depart="808" />
    <vehicle id="down_172" type="typeNS" route="down" depart="808" color="1,0,0"/>
    <vehicle id="right_173" type="typeWE" route="right" depart="812" />
    <vehicle id="left_174" type="typeWE" route="left" depart="812" />
    <vehicle id="down_175" type="typeNS" route="down" depart="817" color="1,0,0"/>
    <vehicle id="right_176" type="typeWE" route="right" depart="826" />
    <vehicle id="down_177" type="typeNS" route="down" depart="838" color="1,0,0"/>
    <vehicle id="right_178" type="typeWE" route="right" depart="841" />
    <vehicle id="left_179" type="typeWE" route="left" depart="845" />
    <vehicle id="down_180" type="typeNS" route="down" depart="847" color="1,0,0"/>
    <vehicle id="left_181" type="typeWE" route="left" depart="854" />
    <vehicle id="right_182" type="typeWE" route="right" depart="856" />
    <vehicle id="right_183" type="typeWE" route="right" depart="858" />
    <vehicle id="left_184" type="typeWE" route="left" depart="862" />
    <vehicle id="left_185" type="typeWE" route="left" depart="865" />
    <vehicle id="left_186" type="typeWE" route="left" depart="868" />
    <vehicle id="right_187" type="typeWE" route="right" depart="879" />
    <vehicle id="left_188" type="typeWE" route="left" depart="879" />
    <vehicle id="right_189" type="typeWE" route="right" depart="880" />
    <vehicle id="left_190" type="typeWE" route="left" depart="880" />
    <vehicle id="right_191" type="typeWE" route="right" depart="887" />
    <vehicle id="left_192" type="typeWE" route="left" depart="888" />
    <vehicle id="down_193" type="typeNS" route="down" depart="895" color="1,0,0"/>
    <vehicle id="down_194" type="typeNS" route="down" depart="901" color="1,0,0"/>
    <vehicle id="right_195" type="typeWE" route="right" depart="907" />
    <vehicle id="down_196" type="typeNS" route="down" depart="911" color="1,0,0"/>
    <vehicle id="right_197" type="typeWE" route="right" depart="916" />
    <vehicle id="left_198" type="typeWE" route="left" depart="918" />
    <vehicle id="right_199" type="typeWE" route="right" depart="921" />
    <vehicle id="right_200" type="typeWE" route="right" depart="922" />
    <vehicle id="left_201" type="typeWE" route="left" depart="924" />
    <vehicle id="down_202" type="typeNS" route="down" depart="935" color="1,0,0"/>
    <vehicle id="right_203" type="typeWE" route="right" depart="939" />
    <vehicle id="down_204" type="typeNS" route="down" depart="941" color="1,0,0"/>
    <vehicle id="left_205" type="typeWE" route="left" depart="945" />
    <vehicle id="right_206" type="typeWE" route="right" depart="948" />
    <vehicle id="right_207" type="typeWE" route="right" depart="950" />
    <vehicle id="left_208" type="typeWE" route="left" depart="952" />
    <vehicle id="left_209" type="typeWE" route="left" depart="954" />
    <vehicle id="left_210" type="typeWE" route="left" depart="965" />
    <vehicle id="down_211" type="typeNS" route="down" depart="969" color="1,0,0"/>
    <vehicle id="left_212" type="typeWE" route="left" depart="973" />
    <vehicle id="down_213" type="typeNS" route="down" depart="974" color="1,0,0"/>
    <vehicle id="left_214" type="typeWE" route="left" depart="977" />
    <vehicle id="right_215" type="typeWE" route="right" depart="989" />
    <vehicle id="left_216" type="typeWE" route="left" depart="993" />
    <vehicle id="down_217" type="typeNS" route="down" depart="996" color="1,0,0"/>
    <vehicle id="left_218" type="typeWE" route="left" depart="1001" />
    <vehicle id="right_219" type="typeWE" route="right" depart="1003" />
    <vehicle id="right_220" type="typeWE" route="right" depart="1005" />
    <vehicle id="left_221" type="typeWE" route="left" depart="1006" />
    <vehicle id="right_222" type="typeWE" route="right" depart="1011" />
    <vehicle id="left_223" type="typeWE" route="left" depart="1014" />
    <vehicle id="left_224" type="typeWE" route="left" depart="1015" />
    <vehicle id="left_225" type="typeWE" route="left" depart="1026" />
    <vehicle id="left_226" type="typeWE" route="left" depart="1034" />
    <vehicle id="right_227" type="typeWE" route="right" depart="1043" />
    <vehicle id="down_228" type="typeNS" route="down" depart="1044" color="1,0,0"/>
    <vehicle id="right_229" type="typeWE" route="right" depart="1047" />
    <vehicle id="right_230" type="typeWE" route="right" depart="1049" />
    <vehicle id="down_231" type="typeNS" route="down" depart="1056" color="1,0,0"/>
    <vehicle id="right_232" type="typeWE" route="right" depart="1061" />
    <vehicle id="right_233" type="typeWE" route="right" depart="1068" />
    <vehicle id="right_234" type="typeWE" route="right" depart="1069" />
    <vehicle id="left_235" type="typeWE" route="left" depart="1070" />
    <vehicle id="right_236" type="typeWE" route="right" depart="1078" />
    <vehicle id="left_237" type="typeWE" route="left" depart="1085" />
    <vehicle id="right_238" type="typeWE" route="right" depart="1093" />
    <vehicle id="left_239" type="typeWE" route="left" depart="1097" />
    <vehicle id="left_240" type="typeWE" route="left" depart="1099" />
    <vehicle id="left_241" type="typeWE" route="left" depart="1104" />
    <vehicle id="down_242" type="typeNS" route="down" depart="1108" color="1,0,0"/>
    <vehicle id="down_243" type="typeNS" route="down" depart="1109" color="1,0,0"/>
    <vehicle id="down_244" type="typeNS" route="down" depart="1121" color="1,0,0"/>
    <vehicle id="right_245" type="typeWE" route="right" depart="1123" />
    <vehicle id="left_246" type="typeWE" route="left" depart="1124" />
    <vehicle id="down_247" type="typeNS" route="down" depart="1133" color="1,0,0"/>
    <vehicle id="left_248" type="typeWE" route="left" depart="1135" />
    <vehicle id="left_249" type="typeWE" route="left" depart="1137" />
    <vehicle id="right_250" type="typeWE" route="right" depart="1141" />
    <vehicle id="left_251" type="typeWE" route="left" depart="1143" />
    <vehicle id="right_252" type="typeWE" route="right" depart="1146" />
    <vehicle id="left_253" type="typeWE" route="left" depart="1150" />
    <vehicle id="down_254" type="typeNS" route="down" depart="1153" color="1,0,0"/>
    <vehicle id="left_255" type="typeWE" route="left" depart="1156" />
    <vehicle id="right_256" type="typeWE" route="right" depart="1167" />
    <vehicle id="left_257" type="typeWE" route="left" depart="1172" />
    <vehicle id="left_258" type="typeWE" route="left" depart="1181" />
    <vehicle id="down_259" type="typeNS" route="down" depart="1189" color="1,0,0"/>
    <vehicle id="right_260" type="typeWE" route="right" depart="1208" />
    <vehicle id="right_261" type="typeWE" route="right" depart="1212" />
    <vehicle id="left_262" type="typeWE" route="left" depart="1218" />
    <vehicle id="left_263" type="typeWE" route="left" depart="1232" />
    <vehicle id="left_264" type="typeWE" route="left" depart="1237" />
    <vehicle id="down_265" type="typeNS" route="down" depart="1243" color="1,0,0"/>
    <vehicle id="left_266" type="typeWE" route="left" depart="1246" />
    <vehicle id="right_267" type="typeWE" route="right" depart="1252" />
    <vehicle id="left_268" type="typeWE" route="left" depart="1252" />
    <vehicle id="left_269" type="typeWE" route="left" depart="1255" />
    <vehicle id="right_270" type="typeWE" route="right" depart="1258" />
    <vehicle id="right_271" type="typeWE" route="right" depart="1267" />
    <vehicle id="right_272" type="typeWE" route="right" depart="1275" />
    <vehicle id="left_273" type="typeWE" route="left" depart="1281" />
    <vehicle id="left_274" type="typeWE" route="left" depart="1288" />
    <vehicle id="right_275" type="typeWE" route="right" depart="1289" />
    <vehicle id="down_276" type="typeNS" route="down" depart="1289" color="1,0,0"/>
    <vehicle id="left_277" type="typeWE" route="left" depart="1301" />
    <vehicle id="right_278" type="typeWE" route="right" depart="1302" />
    <vehicle id="right_279" type="typeWE" route="right" depart="1304" />
    <vehicle id="down_280" type="typeNS" route="down" depart="1317" color="1,0,0"/>
    <vehicle id="right_281" type="typeWE" route="right" depart="1318" />
    <vehicle id="left_282" type="typeWE" route="left" depart="1319" />
    <vehicle id="right_283" type="typeWE" route="right" depart="1320" />
    <vehicle id="right_284" type="typeWE" route="right" depart="1322" />
    <vehicle id="left_285" type="typeWE" route="left" depart="1323" />
    <vehicle id="left_286" type="typeWE" route="left" depart="1332" />
    <vehicle id="down_287" type="typeNS" route="down" depart="1336" color="1,0,0"/>
    <vehicle id="right_288" type="typeWE" route="right" depart="1340" />
    <vehicle id="left_289" type="typeWE" route="left" depart="1344" />
    <vehicle id="right_290" type="typeWE" route="right" depart="1357" />
    <vehicle id="left_291" type="typeWE" route="left" depart="1359" />
    <vehicle id="down_292" type="typeNS" route="down" depart="1359" color="1,0,0"/>
    <vehicle id="down_293" type="typeNS" route="down" depart="1364" color="1,0,0"/>
    <vehicle id="left_294" type="typeWE" route="left" depart="1366" />
    <vehicle id="right_295" type="typeWE" route="right" depart="1367" />
    <vehicle id="right_296" type="typeWE" route="right" depart="1370" />
    <vehicle id="left_297" type="typeWE" route="left" depart="1370" />
    <vehicle id="right_298" type="typeWE" route="right" depart="1375" />
    <vehicle id="down_299" type="typeNS" route="down" depart="1380" color="1,0,0"/>
    <vehicle id="left_300" type="typeWE" route="left" depart="1381" />
    <vehicle id="right_301" type="typeWE" route="right" depart="1384" />
    <vehicle id="right_302" type="typeWE" route="right" depart="1385" />
    <vehicle id="right_303" type="typeWE" route="right" depart="1386" />
    <vehicle id="left_304" type="typeWE" route="left" depart="1394" />
    <vehicle id="down_305" type="typeNS" route="down" depart="1402" color="1,0,0"/>
    <vehicle id="right_306" type="typeWE" route="right" depart="1420" />
    <vehicle id="right_307" type="typeWE" route="right" depart="1428" />
    <vehicle id="right_308" type="typeWE" route="right" depart="1433" />
    <vehicle id="down_309" type="typeNS" route="down" depart="1436" color="1,0,0"/>
    <vehicle id="left_310" type="typeWE" route="left" depart="1441" />
    <vehicle id="right_311" type="typeWE" route="right" depart="1450" />
    <vehicle id="down_312" type="typeNS" route="down" depart="1451" color="1,0,0"/>
    <vehicle id="right_313" type="typeWE" route="right" depart="1453" />
    <vehicle id="left_314" type="typeWE" route="left" depart="1454" />
    <vehicle id="down_315" type="typeNS" route="down" depart="1463" color="1,0,0"/>
    <vehicle id="right_316" type="typeWE" route="right" depart="1464" />
    <vehicle id="left_317" type="typeWE" route="left" depart="1470" />
    <vehicle id="right_318" type="typeWE" route="right" depart="1471" />
    <vehicle id="right_319" type="typeWE" route="right" depart="1475" />
    <vehicle id="left_320" type="typeWE" route="left" depart="1478" />
    <vehicle id="down_321" type="typeNS" route="down" depart="1483" color="1,0,0"/>
    <vehicle id="right_322" type="typeWE" route="right" depart="1484" />
    <vehicle id="right_323" type="typeWE" route="right" depart="1488" />
    <vehicle id="left_324" type="typeWE" route="left" depart="1497" />
    <vehicle id="right_325" type="typeWE" route="right" depart="1499" />
    <vehicle id="left_326" type="typeWE" route="left" depart="1500" />
    <vehicle id="left_327" type="typeWE" route="left" depart="1512" />
    <vehicle id="right_328" type="typeWE" route="right" depart="1513" />
    <vehicle id="down_329" type="typeNS" route="down" depart="1515" color="1,0,0"/>
    <vehicle id="right_330" type="typeWE" route="right" depart="1516" />
    <vehicle id="down_331" type="typeNS" route="down" depart="1533" color="1,0,0"/>
    <vehicle id="left_332" type="typeWE" route="left" depart="1536" />
    <vehicle id="right_333" type="typeWE" route="right" depart="1544" />
    <vehicle id="left_334" type="typeWE" route="left" depart="1547" />
    <vehicle id="down_335" type="typeNS" route="down" depart="1548" color="1,0,0"/>
    <vehicle id="left_336" type="typeWE" route="left" depart="1550" />
    <vehicle id="left_337" type="typeWE" route="left" depart="1554" />
    <vehicle id="right_338" type="typeWE" route="right" depart="1555" />
    <vehicle id="right_339" type="typeWE" route="right" depart="1559" />
    <vehicle id="left_340" type="typeWE" route="left" depart="1560" />
    <vehicle id="left_341" type="typeWE" route="left" depart="1562" />
    <vehicle id="down_342" type="typeNS" route="down" depart="1564" color="1,0,0"/>
    <vehicle id="right_343" type="typeWE" route="right" depart="1567" />
    <vehicle id="down_344" type="typeNS" route="down" depart="1568" color="1,0,0"/>
    <vehicle id="right_345" type="typeWE" route="right" depart="1570" />
    <vehicle id="left_346" type="typeWE" route="left" depart="1573" />
    <vehicle id="left_347" type="typeWE" route="left" depart="1574" />
    <vehicle id="right_348" type="typeWE" route="right" depart="1576" />
    <vehicle id="down_349" type="typeNS" route="down" depart="1576" color="1,0,0"/>
    <vehicle id="down_350" type="typeNS" route="down" depart="1578" color="1,0,0"/>
    <vehicle id="left_351" type="typeWE" route="left" depart="1583" />
    <vehicle id="right_352" type="typeWE" route="right" depart="1589" />
    <vehicle id="right_353" type="typeWE" route="right" depart="1591" />
    <vehicle id="right_354" type="typeWE" route="right" depart="1612" />
    <vehicle id="down_355" type="typeNS" route="down" depart="1612" color="1,0,0"/>
    <vehicle id="down_356" type="typeNS" route="down" depart="1617" color="1,0,0"/>
    <vehicle id="right_357" type="typeWE" route="right" depart="1622" />
    <vehicle id="down_358" type="typeNS" route="down" depart="1624" color="1,0,0"/>
    <vehicle id="left_359" type="typeWE" route="left" depart="1627" />
    <vehicle id="down_360" type="typeNS" route="down" depart="1645" color="1,0,0"/>
    <vehicle id="right_361" type="typeWE" route="right" depart="1650" />
    <vehicle id="right_362" type="typeWE" route="right" depart="1651" />
    <vehicle id="right_363" type="typeWE" route="right" depart="1653" />
    <vehicle id="right_364" type="typeWE" route="right" depart="1657" />
    <vehicle id="left_365" type="typeWE" route="left" depart="1658" />
    <vehicle id="down_366" type="typeNS" route="down" depart="1669" color="1,0,0"/>
    <vehicle id="right_367" type="typeWE" route="right" depart="1670" />
    <vehicle id="left_368" type="typeWE" route="left" depart="1673" />
    <vehicle id="down_369" type="typeNS" route="down" depart="1675" color="1,0,0"/>
    <vehicle id="left_370" type="typeWE" route="left" depart="1677" />
    <vehicle id="down_371" type="typeNS" route="down" depart="1686" color="1,0,0"/>
    <vehicle id="left_372" type="typeWE" route="left" depart="1690" />
    <vehicle id="down_373" type="typeNS" route="down" depart="1694" color="1,0,0"/>
    <vehicle id="down_374" type="typeNS" route="down" depart="1700" color="1,0,0"/>
    <vehicle id="right_375" type="typeWE" route="right" depart="1702" />
    <vehicle id="down_376" type="typeNS" route="down" depart="1702" color="1,0,0"/>
    <vehicle id="down_377" type="typeNS" route="down" depart="1707" color="1,0,0"/>
    <vehicle id="right_378" type="typeWE" route="right" depart="1711" />
    <vehicle id="left_379" type="typeWE" route="left" depart="1725" />
    <vehicle id="left_380" type="typeWE" route="left" depart="1735" />
    <vehicle id="right_381" type="typeWE" route="right" depart="1741" />
    <vehicle id="down_382" type="typeNS" route="down" depart="1742" color="1,0,0"/>
    <vehicle id="right_383" type="typeWE" route="right" depart="1748" />
    <vehicle id="left_384" type="typeWE" route="left" depart="1748" />
    <vehicle id="left_385" type="typeWE" route="left" depart="1758" />
    <vehicle id="down_386" type="typeNS" route="down" depart="1758" color="1,0,0"/>
    <vehicle id="left_387" type="typeWE" route="left" depart="1760" />
    <vehicle id="left_388" type="typeWE" route="left" depart="1771" />
    <vehicle id="right_389" type="typeWE" route="right" depart="1772" />
    <vehicle id="left_390" type="typeWE" route="left" depart="1773" />
    <vehicle id="left_391" type="typeWE" route="left" depart="1778" />
    <vehicle id="right_392" type="typeWE" route="right" depart="1780" />
    <vehicle id="right_393" type="typeWE" route="right" depart="1781" />
    <vehicle id="right_394" type="typeWE" route="right" depart="1785" />
    <vehicle id="left_395" type="typeWE" route="left" depart="1789" />
    <vehicle id="left_396" type="typeWE" route="left" depart="1798" />
    <vehicle id="left_397" type="typeWE" route="left" depart="1800" />
    <vehicle id="right_398" type="typeWE" route="right" depart="1808" />
    <vehicle id="left_399" type="typeWE" route="left" depart="1810" />
    <vehicle id="right_400" type="typeWE" route="right" depart="1821" />