<nodes><node id="0" type="priority" x="-2394061802.916201" y="1426311262.4765024" /><node id="1" type="priority" x="-2393763607.325235" y="1426317318.9866338" /><node id="2" type="priority" x="-2394025499.654774" y="1426345108.202345" /><node id="3" type="priority" x="-2393644545.745887" y="1426408510.2488995" /><node id="4" type="priority" x="-2394004638.812537" y="1426311264.8924274" /><node id="5" type="priority" x="-2394085412.610692" y="1426177526.8422487" /><node id="6" type="priority" x="-2394157829.304216" y="1426312934.8496518" /><node id="7" type="priority" x="-2393816304.4954486" y="1426257649.9763377" /><node id="8" type="priority" x="-2394113222.4312015" y="1426222335.3237393" /><node id="9" type="priority" x="-2393613753.273985" y="1426458973.261313" /><node id="10" type="priority" x="-2393678125.9384847" y="1426309657.506053" /><node id="11" type="priority" x="-2393744490.973062" y="1426423443.0507417" /><node id="12" type="priority" x="-2394070356.878122" y="1426328574.8110464" /><node id="13" type="priority" x="-2394154196.871921" y="1426305822.3638604" /><node id="14" type="priority" x="-2393540070.4243703" y="1426377532.9026036" /><node id="15" type="priority" x="-2393795782.0764685" y="1426382959.4772825" /><node id="16" type="priority" x="-2393795772.505486" y="1426215872.4640977" /><node id="17" type="priority" x="-2394061433.956481" y="1426177627.8619406" /><node id="18" type="priority" x="-2393590895.739698" y="1426464897.0178926" /><node id="19" type="priority" x="-2393868731.2253647" y="1426363240.939387" /><node id="20" type="priority" x="-2394054260.5391417" y="1426178099.36655" /><node id="21" type="priority" x="-2393462573.056262" y="1426337294.9334717" /><node id="22" type="priority" x="-2393526370.825247" y="1426350242.4052498" /><node id="23" type="priority" x="-2393684276.2539167" y="1426322641.4553764" /><node id="24" type="priority" x="-2393736075.0223503" y="1426263270.5044909" /><node id="25" type="priority" x="-2393769588.1315684" y="1426328892.90585" /><node id="26" type="priority" x="-2394048739.108249" y="1426284622.9969559" /><node id="27" type="priority" x="-2393461340.686581" y="1426334109.1180658" /><node id="28" type="priority" x="-2393710606.860421" y="1426375761.8019361" /><node id="29" type="priority" x="-2393615066.9393163" y="1426455956.6004374" /><node id="30" type="priority" x="-2393545496.4013257" y="1426389289.8390572" /><node id="31" type="priority" x="-2393663596.623198" y="1426445670.4755025" /><node id="32" type="priority" x="-2393624703.6579576" y="1426368028.1975687" /><node id="33" type="priority" x="-2393812709.8122573" y="1426250252.2028024" /><node id="34" type="priority" x="-2394056503.707194" y="1426237988.0244093" /><node id="35" type="priority" x="-2393600463.53297" y="1426455549.8830993" /><node id="36" type="priority" x="-2393666015.579829" y="1426448218.3391242" /><node id="37" type="priority" x="-2393504365.2447414" y="1426307639.46325" /><node id="38" type="priority" x="-2393697247.2480454" y="1426348542.479996" /><node id="39" type="priority" x="-2394029928.703945" y="1426182870.5578468" /><node id="40" type="priority" x="-2394106413.115969" y="1426208451.650197" /><node id="41" type="priority" x="-2393906127.827633" y="1426262574.927291" /><node id="42" type="priority" x="-2393938924.255971" y="1426329024.9775977" /><node id="43" type="priority" x="-2394117515.4417214" y="1426231008.1448078" /><node id="44" type="priority" x="-2393954045.4409304" y="1426359992.645551" /><node id="45" type="priority" x="-2393877658.3683577" y="1426380439.568867" /><node id="46" type="priority" x="-2393704117.2353554" y="1426362539.6999786" /><node id="47" type="priority" x="-2394207408.8151445" y="1426293713.8457174" /><node id="48" type="priority" x="-2394074265.229659" y="1426170892.2984269" /><node id="49" type="priority" x="-2393822577.677953" y="1426270449.356988" /><node id="50" type="priority" x="-2393591070.932302" y="1426438164.664166" /><node id="51" type="priority" x="-2393828897.8409986" y="1426283325.6980786" /><node id="52" type="priority" x="-2393855286.7520056" y="1426336784.2831688" /><node id="53" type="priority" x="-2393519433.3317027" y="1426337486.304826" /><node id="54" type="priority" x="-2394035261.6490426" y="1426256988.4860053" /><node id="55" type="priority" x="-2394014923.645556" y="1426188059.9803557" /><node id="56" type="priority" x="-2393992031.2430134" y="1426285204.2769568" /><node id="57" type="priority" x="-2393919249.079538" y="1426288475.7557325" /><node id="58" type="priority" x="-2394097757.8217354" y="1426185079.578711" /><node id="59" type="priority" x="-2394067024.460369" y="1426173013.9902608" /><node id="60" type="priority" x="-2393789082.8289924" y="1426369280.5293105" /><node id="61" type="priority" x="-2393631771.744852" y="1426382309.4371872" /><node id="62" type="priority" x="-2393599877.9727955" y="1426471568.7797315" /><node id="63" type="priority" x="-2394215805.078756" y="1426194329.5735037" /><node id="64" type="priority" x="-2393598598.21424" y="1426482480.439714" /><node id="65" type="priority" x="-2394012833.5809603" y="1426183812.2036922" /><node id="66" type="priority" x="-2393659498.6818175" y="1426439545.5095432" /><node id="67" type="priority" x="-2394176766.2322965" y="1426233628.9318457" /><node id="68" type="priority" x="-2393870219.6693535" y="1426391268.6872785" /><node id="69" type="priority" x="-2394003705.352365" y="1426191121.3556535" /><node id="70" type="priority" x="-2393592294.35534" y="1426302177.4842594" /><node id="71" type="priority" x="-2393584237.1273956" y="1426440065.418087" /><node id="72" type="priority" x="-2394053452.261532" y="1426176415.4635756" /><node id="73" type="priority" x="-2394087013.0809746" y="1426168478.834433" /><node id="74" type="priority" x="-2393861718.2885175" y="1426349815.2676442" /><node id="75" type="priority" x="-2394087534.330057" y="1426182376.4527118" /><node id="76" type="priority" x="-2393668951.3940077" y="1426445502.087784" /><node id="77" type="priority" x="-2393775964.9705467" y="1426343032.7253575" /><node id="78" type="priority" x="-2393803404.1507993" y="1426400800.3455813" /><node id="79" type="priority" x="-2393598915.3765764" y="1426315648.6203122" /><node id="80" type="priority" x="-2393979096.004597" y="1426259304.3697615" /><node id="81" type="priority" x="-2394116862.1390142" y="1426229889.0338163" /><node id="82" type="priority" x="-2393705458.274481" y="1426435600.777512" /><node id="83" type="priority" x="-2394087029.146597" y="1426173653.8691123" /><node id="84" type="priority" x="-2393743661.941512" y="1426276883.4453323" /><node id="85" type="priority" x="-2393605505.473114" y="1426329165.7151322" /><node id="86" type="priority" x="-2393590582.849429" y="1426475138.6482606" /><node id="87" type="priority" x="-2394077127.853049" y="1426172811.938069" /><node id="88" type="priority" x="-2394127101.4897957" y="1426250594.743904" /><node id="89" type="priority" x="-2393853339.552774" y="1426231477.5850823" /><node id="90" type="priority" x="-2394132815.501126" y="1426261612.5956817" /><node id="91" type="priority" x="-2394091372.7076206" y="1426172570.4327176" /><node id="92" type="priority" x="-2393825014.9104533" y="1426176785.9173634" /><node id="93" type="priority" x="-2394170008.9247828" y="1426221358.547766" /><node id="94" type="priority" x="-2394155787.693151" y="1426308937.2245886" /><node id="95" type="priority" x="-2393899693.9833064" y="1426249465.1386096" /><node id="96" type="priority" x="-2393722766.0298004" y="1426432565.0976877" /><node id="97" type="priority" x="-2393913649.3813596" y="1426276811.0960236" /><node id="98" type="priority" x="-2393959281.3114147" y="1426218639.2798343" /><node id="99" type="priority" x="-2393651240.824953" y="1426254709.6894789" /><node id="100" type="priority" x="-2393512463.4352603" y="1426323782.8140671" /><node id="101" type="priority" x="-2394038174.964888" y="1426184223.9133384" /><node id="102" type="priority" x="-2393848740.083851" y="1426323521.919932" /><node id="103" type="priority" x="-2394080557.64858" y="1426155826.3975613" /><node id="104" type="priority" x="-2394027831.743426" y="1426348123.667088" /><node id="105" type="priority" x="-2394011496.1408124" y="1426324782.0692055" /><node id="106" type="priority" x="-2394042424.3909" y="1426271454.2396758" /><node id="107" type="priority" x="-2393664828.207886" y="1426282623.1161482" /><node id="108" type="priority" x="-2393724110.2666936" y="1426402496.4820194" /><node id="109" type="priority" x="-2393755903.623328" y="1426302887.1439543" /><node id="110" type="priority" x="-2394152736.8183274" y="1426256392.9641562" /><node id="111" type="priority" x="-2394032708.518072" y="1426251216.7227767" /><node id="112" type="priority" x="-2394019627.138635" y="1426342416.413419" /><node id="113" type="priority" x="-2394115897.9569035" y="1426228007.143575" /><node id="114" type="priority" x="-2394161525.4249554" y="1426320416.4610262" /><node id="115" type="priority" x="-2393965604.683657" y="1426231577.203376" /><node id="116" type="priority" x="-2393952714.3231783" y="1426204868.7261329" /><node id="117" type="priority" x="-2394050141.416186" y="1426170056.143999" /><node id="118" type="priority" x="-2394009266.8355083" y="1426178671.8799171" /><node id="119" type="priority" x="-2393618687.561793" y="1426356301.596987" /><node id="120" type="priority" x="-2394132541.076521" y="1426156396.7569685" /><node id="121" type="priority" x="-2393971909.7866135" y="1426244930.9173603" /><node id="122" type="priority" x="-2393532792.073409" y="1426363343.124111" /><node id="123" type="priority" x="-2393893494.537418" y="1426236438.3569386" /><node id="124" type="priority" x="-2393813968.5353813" y="1426401754.4563792" /><node id="125" type="priority" x="-2394092148.2362947" y="1426326585.3300922" /><node id="126" type="priority" x="-2394108631.5955033" y="1426332443.0184467" /><node id="127" type="priority" x="-2394100451.699693" y="1426196112.9811082" /><node id="128" type="priority" x="-2393732232.4558454" y="1426419969.6390622" /><node id="129" type="priority" x="-2393926092.015563" y="1426302917.368914" /><node id="130" type="priority" x="-2393611765.3530784" y="1426342011.5327425" /><node id="131" type="priority" x="-2393835672.886984" y="1426297782.7800088" /><node id="132" type="priority" x="-2393932672.0756354" y="1426315902.4773653" /><node id="133" type="priority" x="-2393664640.6294084" y="1426446815.5127525" /><node id="134" type="priority" x="-2394126217.314821" y="1426248858.7994714" /><node id="135" type="priority" x="-2394054934.093798" y="1426179614.8733737" /><node id="136" type="priority" x="-2393945656.7557173" y="1426342542.0003126" /><node id="137" type="priority" x="-2393886925.0243354" y="1426222604.7991982" /><node id="138" type="priority" x="-2394016353.6585035" y="1426218013.6216526" /><node id="139" type="priority" x="-2394009835.681869" y="1426205028.871638" /><node id="140" type="priority" x="-2394055096.2029524" y="1426297586.3560815" /><node id="141" type="priority" x="-2394138974.4558406" y="1426274873.0936148" /><node id="142" type="priority" x="-2393782979.2311015" y="1426356181.4055045" /><node id="143" type="priority" x="-2394172907.8748574" y="1426189886.6343708" /><node id="144" type="priority" x="-2393671573.1552453" y="1426296325.5026684" /><node id="145" type="priority" x="-2394145879.319927" y="1426288390.3847344" /><node id="146" type="priority" x="-2393998237.4738617" y="1426298257.205885" /><node id="147" type="priority" x="-2393749967.1753283" y="1426290029.5876563" /><node id="148" type="priority" x="-2393985071.0975156" y="1426270762.2960908" /><node id="149" type="priority" x="-2393651027.6693735" y="1426421980.4965782" /><node id="150" type="priority" x="-2393809410.60468" y="1426243462.511209" /><node id="151" type="priority" x="-2394218140.6695366" y="1426269008.2556667" /><node id="152" type="priority" x="-2393637999.8583007" y="1426395293.7421143" /><node id="153" type="priority" x="-2393691484.329492" y="1426336992.4171274" /><node id="154" type="priority" x="-2393717190.5230746" y="1426388541.021138" /><node id="155" type="priority" x="-2394069266.39409" y="1426248194.947188" /><node id="156" type="priority" x="-2393842082.6499243" y="1426309358.0925295" /><node id="157" type="priority" x="-2394022902.145023" y="1426231114.0184581" /><node id="158" type="priority" x="-2394092569.5570517" y="1426184659.8858674" /><node id="159" type="priority" x="-2393620954.493875" y="1426360459.3703568" /><node id="160" type="priority" x="-2393621975.626649" y="1426362520.8459723" /><node id="161" type="priority" x="-2393568048.1790967" y="1426308672.089574" /><node id="162" type="priority" x="-2393662917.237179" y="1426283101.236005" /><node id="163" type="priority" x="-2393648197.218379" y="1426286997.6024668" /><node id="164" type="priority" x="-2393728134.059629" y="1426265366.8564093" /><node id="165" type="priority" x="-2393675556.594884" y="1426279428.2020552" /><node id="166" type="priority" x="-2393752831.351342" y="1426258734.4053895" /><node id="167" type="priority" x="-2393742160.4725275" y="1426261534.554376" /><node id="168" type="priority" x="-2393736964.3920336" y="1426263019.631755" /><node id="169" type="priority" x="-2393989658.94697" y="1426194605.5789788" /><node id="170" type="priority" x="-2394123356.51254" y="1426230157.5804052" /><node id="171" type="priority" x="-2394128663.9287233" y="1426229644.9254632" /><node id="172" type="priority" x="-2394134626.898191" y="1426229307.7323139" /><node id="173" type="priority" x="-2394141715.3070793" y="1426229299.0330174" /><node id="174" type="priority" x="-2394152185.2935343" y="1426229775.3797534" /><node id="175" type="priority" x="-2394156318.1400247" y="1426230167.8203444" /><node id="176" type="priority" x="-2394160525.661564" y="1426230844.8024378" /><node id="177" type="priority" x="-2393772340.370144" y="1426334995.664854" /><node id="178" type="priority" x="-2393794434.2923303" y="1426380416.2214668" /><node id="179" type="priority" x="-2393798270.407099" y="1426390546.591368" /><node id="180" type="priority" x="-2393899765.9239244" y="1426249613.6644864" /><node id="181" type="priority" x="-2393893629.5095634" y="1426236722.520914" /><node id="182" type="priority" x="-2393896885.2065763" y="1426243665.5221436" /><node id="183" type="priority" x="-2393864712.444818" y="1426355547.330518" /><node id="184" type="priority" x="-2393851431.7322617" y="1426328974.7059278" /><node id="185" type="priority" x="-2393819596.1020355" y="1426264365.9863696" /><node id="186" type="priority" x="-2394047095.9699135" y="1426281196.4264898" /><node id="187" type="priority" x="-2394015154.5600753" y="1426215629.6101592" /><node id="188" type="priority" x="-2394128424.267554" y="1426253140.8882222" /><node id="189" type="priority" x="-2393669186.1760106" y="1426387116.1406093" /><node id="190" type="priority" x="-2393796565.7208333" y="1426352676.236002" /><node id="191" type="priority" x="-2393916351.0194693" y="1426320265.2895212" /><node id="192" type="priority" x="-2393556450.4963555" y="1426342476.0557914" /><node id="193" type="priority" x="-2393627177.470852" y="1426323285.235709" /><node id="194" type="priority" x="-2393675692.127674" y="1426310295.429086" /><node id="195" type="priority" x="-2393704881.120194" y="1426302256.2792647" /><node id="196" type="priority" x="-2393786934.867469" y="1426279956.6518087" /><node id="197" type="priority" x="-2393878174.924158" y="1426255305.0367985" /><node id="198" type="priority" x="-2393991887.156224" y="1426224718.5315166" /><node id="199" type="priority" x="-2394148366.6555934" y="1426248228.980374" /><node id="200" type="priority" x="-2394138431.959651" y="1426247570.4937963" /><node id="201" type="priority" x="-2393850544.333972" y="1426232222.148297" /><node id="202" type="priority" x="-2393823719.0018077" y="1426239286.4502985" /><node id="203" type="priority" x="-2393817351.705107" y="1426241296.318204" /><node id="204" type="priority" x="-2393813824.6778336" y="1426242415.5119298" /><node id="205" type="priority" x="-2393653840.1312995" y="1426427605.26293" /><node id="206" type="priority" x="-2394089453.960047" y="1426182410.1371973" /><node id="207" type="priority" x="-2394091440.99125" y="1426182443.8197477" /><node id="208" type="priority" x="-2394096728.393056" y="1426182746.9253173" /><node id="209" type="priority" x="-2394103901.79216" y="1426183353.12477" /><node id="210" type="priority" x="-2394112018.177965" y="1426184195.0577953" /><node id="211" type="priority" x="-2394131180.917978" y="1426186889.2965913" /><node id="212" type="priority" x="-2394136131.5670433" y="1426187596.522296" /><node id="213" type="priority" x="-2394144315.328968" y="1426188371.1360373" /><node id="214" type="priority" x="-2394103573.3086596" y="1426194246.9323263" /><node id="215" type="priority" x="-2394104911.175505" y="1426193447.0318925" /><node id="216" type="priority" x="-2394106247.1124115" y="1426192748.8474698" /><node id="217" type="priority" x="-2394107446.767" y="1426192083.1627886" /><node id="218" type="priority" x="-2394108510.180525" y="1426191449.9478035" /><node id="219" type="priority" x="-2394110356.646233" y="1426190655.4135218" /><node id="220" type="priority" x="-2394112333.5649977" y="1426190133.5272734" /><node id="221" type="priority" x="-2394115395.4932384" y="1426189623.0112824" /><node id="222" type="priority" x="-2394117500.9771395" y="1426189475.518156" /><node id="223" type="priority" x="-2394119128.4721985" y="1426189492.5886896" /><node id="224" type="priority" x="-2394120620.397205" y="1426189508.2337453" /><node id="225" type="priority" x="-2394122177.4886613" y="1426189660.2174606" /><node id="226" type="priority" x="-2394124919.432289" y="1426189926.377216" /><node id="227" type="priority" x="-2394135986.8924947" y="1426191093.7433531" /><node id="228" type="priority" x="-2394142050.380865" y="1426191462.564322" /><node id="229" type="priority" x="-2394143439.2801533" y="1426191544.9610026" /><node id="230" type="priority" x="-2394144830.106838" y="1426191525.6103706" /><node id="231" type="priority" x="-2393801002.4647007" y="1426404145.941649" /><node id="232" type="priority" x="-2393785207.523939" y="1426408524.0740921" /><node id="233" type="priority" x="-2393740584.2515864" y="1426420951.2281823" /><node id="234" type="priority" x="-2393738799.3085694" y="1426421321.6973906" /><node id="235" type="priority" x="-2393736913.3746977" y="1426421658.4730327" /><node id="236" type="priority" x="-2393735330.5162344" y="1426421591.105875" /><node id="237" type="priority" x="-2393734084.4182744" y="1426421052.2583165" /><node id="238" type="priority" x="-2393733051.483845" y="1426420577.3806942" /><node id="239" type="priority" x="-2393599439.786945" y="1426480998.4027448" /><node id="240" type="priority" x="-2393600045.7766557" y="1426479987.936205" /><node id="241" type="priority" x="-2393600853.7436914" y="1426478809.033898" /><node id="242" type="priority" x="-2393603008.496705" y="1426476046.9712756" /><node id="243" type="priority" x="-2393606341.8383913" y="1426472442.777425" /><node id="244" type="priority" x="-2393608530.3908057" y="1426470219.5914264" /><node id="245" type="priority" x="-2393610550.7115035" y="1426468434.2972057" /><node id="246" type="priority" x="-2393612335.319166" y="1426466952.1154377" /><node id="247" type="priority" x="-2393613109.7966943" y="1426466379.4541638" /><node id="248" type="priority" x="-2393615332.209588" y="1426464728.8296392" /><node id="249" type="priority" x="-2393617554.6884108" y="1426463280.2862566" /><node id="250" type="priority" x="-2393619911.8803415" y="1426461865.380421" /><node id="251" type="priority" x="-2393622100.7304344" y="1426460753.62462" /><node id="252" type="priority" x="-2393624626.4016376" y="1426459675.496905" /><node id="253" type="priority" x="-2393627152.1403637" y="1426458799.480296" /><node id="254" type="priority" x="-2393629745.2834754" y="1426457990.7792656" /><node id="255" type="priority" x="-2393635874.454861" y="1426456171.1717622" /><node id="256" type="priority" x="-2393642407.863899" y="1426454486.21515" /><node id="257" type="priority" x="-2393650086.2446976" y="1426452430.6363733" /><node id="258" type="priority" x="-2393658000.4017086" y="1426450375.004143" /><node id="259" type="priority" x="-2394161491.06469" y="1426224339.1332695" /><node id="260" type="priority" x="-2394157921.1938863" y="1426225012.6931057" /><node id="261" type="priority" x="-2394154081.927884" y="1426225753.6296105" /><node id="262" type="priority" x="-2394150276.3019085" y="1426226292.4787838" /><node id="263" type="priority" x="-2394145965.5323" y="1426226662.9129121" /><node id="264" type="priority" x="-2394142092.560168" y="1426226864.9927676" /><node id="265" type="priority" x="-2394132427.0101366" y="1426227269.1339934" /><node id="266" type="priority" x="-2394126331.292324" y="1426227403.8274884" /><node id="267" type="priority" x="-2394120774.4669785" y="1426227538.5589287" /><node id="268" type="priority" x="-2394113567.3923135" y="1426228447.8428583" /><node id="269" type="priority" x="-2394109930.153906" y="1426229458.184087" /><node id="270" type="priority" x="-2394106663.3825345" y="1426230232.7767222" /><node id="271" type="priority" x="-2394102588.3528476" y="1426231276.805775" /><node id="272" type="priority" x="-2394096189.561431" y="1426232825.9736032" /><node id="273" type="priority" x="-2394084200.2192235" y="1426235452.8510082" /><node id="274" type="priority" x="-2394079990.473601" y="1426236160.094922" /><node id="275" type="priority" x="-2394075848.0912833" y="1426236496.8845334" /><node id="276" type="priority" x="-2394069583.9938965" y="1426236867.349763" /><node id="277" type="priority" x="-2394068169.514733" y="1426236867.3354053" /><node id="278" type="priority" x="-2393598807.5366907" y="1426480053.7140145" /><node id="279" type="priority" x="-2393599149.6828284" y="1426478335.117393" /><node id="280" type="priority" x="-2393600132.55618" y="1426476516.386586" /><node id="281" type="priority" x="-2393604226.8099384" y="1426471230.6561217" /><node id="282" type="priority" x="-2393604735.4832172" y="1426470186.5062335" /><node id="283" type="priority" x="-2393605108.9592896" y="1426469276.9603014" /><node id="284" type="priority" x="-2393605415.298654" y="1426468266.1697032" /><node id="285" type="priority" x="-2393605552.9888325" y="1426467288.8331172" /><node id="286" type="priority" x="-2393605489.101401" y="1426466075.1934965" /><node id="287" type="priority" x="-2393605257.4024653" y="1426464625.3457503" /><node id="288" type="priority" x="-2393604287.2234674" y="1426462095.5833569" /><node id="289" type="priority" x="-2393603415.349549" y="1426460543.577898" /><node id="290" type="priority" x="-2393597271.0074944" y="1426449899.62445" /><node id="291" type="priority" x="-2393596117.4859076" y="1426448117.50498" /><node id="292" type="priority" x="-2393594216.4777937" y="1426444956.3594036" /><node id="293" type="priority" x="-2393663125.120242" y="1426441629.1213694" /><node id="294" type="priority" x="-2393665381.517883" y="1426442639.468801" /><node id="295" type="priority" x="-2393667200.126551" y="1426443043.5887928" /><node id="296" type="priority" x="-2393669119.776838" y="1426443211.979926" /><node id="297" type="priority" x="-2393670871.0349293" y="1426443144.6174755" /><node id="298" type="priority" x="-2393673194.831647" y="1426442841.5082283" /><node id="299" type="priority" x="-2393695287.5516887" y="1426437587.761969" /><node id="300" type="priority" x="-2393715123.8411093" y="1426433479.045176" /><node id="301" type="priority" x="-2393718963.125199" y="1426432771.8342552" /><node id="302" type="priority" x="-2394051102.1769156" y="1426172023.4202852" /><node id="303" type="priority" x="-2393659341.733855" y="1426441093.3370068" /><node id="304" type="priority" x="-2393659013.4920974" y="1426442204.591822" /><node id="305" type="priority" x="-2393658047.6365743" y="1426443520.211433" /><node id="306" type="priority" x="-2393656943.82545" y="1426444365.4836354" /><node id="307" type="priority" x="-2393655234.1315265" y="1426445145.905428" /><node id="308" type="priority" x="-2393638348.1257796" y="1426449585.8984756" /><node id="309" type="priority" x="-2393610569.238175" y="1426457303.715832" /><node id="310" type="priority" x="-2393604334.770606" y="1426459566.897512" /><node id="311" type="priority" x="-2393601258.743138" y="1426461970.5879269" /><node id="312" type="priority" x="-2393600046.337388" y="1426462947.2416573" /><node id="313" type="priority" x="-2393599675.9061155" y="1426463284.02507" /><node id="314" type="priority" x="-2393598598.191798" y="1426464328.0335267" /><node id="315" type="priority" x="-2393597251.093548" y="1426465776.1765354" /><node id="316" type="priority" x="-2393595971.3398695" y="1426467258.011882" /><node id="317" type="priority" x="-2393594422.159693" y="1426469143.981295" /><node id="318" type="priority" x="-2393593041.3596044" y="1426471029.938442" /><node id="319" type="priority" x="-2393591862.6116514" y="1426472814.8613067" /><node id="320" type="priority" x="-2393591088.0316715" y="1426474128.3242173" /><node id="321" type="priority" x="-2393612439.850542" y="1426459175.3256032" /><node id="322" type="priority" x="-2393611059.043775" y="1426459276.35624" /><node id="323" type="priority" x="-2393610015.0318136" y="1426459208.995338" /><node id="324" type="priority" x="-2393607692.451488" y="1426458794.035198" /><node id="325" type="priority" x="-2393606090.8049903" y="1426458259.8919435" /><node id="326" type="priority" x="-2393604691.310457" y="1426457682.8372104" /><node id="327" type="priority" x="-2393603359.7783947" y="1426457005.7661488" /><node id="328" type="priority" x="-2393655850.677201" y="1426447657.4598963" /><node id="329" type="priority" x="-2393628167.4291296" y="1426455032.929546" /><node id="330" type="priority" x="-2394071477.7883706" y="1426246026.187087" /><node id="331" type="priority" x="-2394073806.508456" y="1426243973.638542" /><node id="332" type="priority" x="-2394076284.2979026" y="1426242723.07006" /><node id="333" type="priority" x="-2394084333.6409106" y="1426239202.6006892" /><node id="334" type="priority" x="-2394097171.519843" y="1426235126.8022246" /><node id="335" type="priority" x="-2394107644.24494" y="1426232540.2691517" /><node id="336" type="priority" x="-2394075578.687502" y="1426173283.4032216" /><node id="337" type="priority" x="-2394083560.330119" y="1426177526.8401613" /><node id="338" type="priority" x="-2394075342.927222" y="1426177526.8334084" /><node id="339" type="priority" x="-2394066822.4137774" y="1426177594.1833372" /><node id="340" type="priority" x="-2394050825.4138494" y="1426177930.963355" /><node id="341" type="priority" x="-2394044830.7047033" y="1426177897.2820122" /><node id="342" type="priority" x="-2394027890.713114" y="1426178200.4076927" /><node id="343" type="priority" x="-2394014587.935849" y="1426178469.8160958" /><node id="344" type="priority" x="-2394013611.279104" y="1426178503.4986894" /><node id="345" type="priority" x="-2394015699.330385" y="1426183925.6501312" /><node id="346" type="priority" x="-2394017922.049174" y="1426183858.2840972" /><node id="347" type="priority" x="-2394027183.509163" y="1426183454.1566644" /><node id="348" type="priority" x="-2394032066.7775745" y="1426183252.0992167" /><node id="349" type="priority" x="-2394043921.421011" y="1426182713.2452455" /><node id="350" type="priority" x="-2394055338.232112" y="1426182140.7032044" /><node id="351" type="priority" x="-2394059312.211451" y="1426182208.0716817" /><node id="352" type="priority" x="-2394071874.0787983" y="1426182309.088843" /><node id="353" type="priority" x="-2393621095.069346" y="1426458670.1349778" /><node id="354" type="priority" x="-2393616986.3370175" y="1426459949.9030876" /><node id="355" type="priority" x="-2393614393.1669536" y="1426460791.8564284" /><node id="356" type="priority" x="-2393612338.80283" y="1426461667.4899244" /><node id="357" type="priority" x="-2393609476.176601" y="1426463081.9420424" /><node id="358" type="priority" x="-2393605483.923167" y="1426466042.88359" /><node id="359" type="priority" x="-2394097378.6023498" y="1426193050.9989507" /><node id="360" type="priority" x="-2394100477.794599" y="1426192173.2415807" /><node id="361" type="priority" x="-2394070975.2280397" y="1426202753.597665" /><node id="362" type="priority" x="-2394094082.6070504" y="1426197046.787459" /><node id="363" type="priority" x="-2394096416.068035" y="1426196470.4892294" /><node id="364" type="priority" x="-2394102506.696212" y="1426196212.7562637" /><node id="365" type="priority" x="-2394112461.4320116" y="1426196026.6035185" /><node id="366" type="priority" x="-2394154355.8741393" y="1426195242.9044514" /><node id="367" type="priority" x="-2393800564.7221975" y="1426406570.3875127" /><node id="368" type="priority" x="-2393795748.773405" y="1426408456.3687918" /><node id="369" type="priority" x="-2393786622.0549817" y="1426411622.0978792" /><node id="370" type="priority" x="-2393776855.455486" y="1426414484.7172394" /><node id="371" type="priority" x="-2393759376.623854" y="1426419098.5862567" /><node id="372" type="priority" x="-2394157904.906234" y="1426313082.8682203" /><node id="373" type="priority" x="-2394154850.5240536" y="1426307102.225254" /><node id="374" type="priority" x="-2394116800.443473" y="1426329245.878052" /><node id="375" type="priority" x="-2394120100.9164886" y="1426328201.8533943" /><node id="376" type="priority" x="-2394123333.980348" y="1426327157.8577754" /><node id="377" type="priority" x="-2394126028.202001" y="1426326214.8692496" /><node id="378" type="priority" x="-2394134346.64744" y="1426323150.1789334" /><node id="379" type="priority" x="-2394146403.354279" y="1426318334.2287352" /><node id="380" type="priority" x