<nodes><node id="0" type="traffic_light" x="343.382407756" y="-14.3678779247" /><node id="1" type="traffic_light" x="1327.19655573" y="5.61390763779" /><node id="2" type="traffic_light" x="463.155011011" y="97.2967641453" /><node id="3" type="traffic_light" x="1720.00741474" y="306.47433853" /><node id="4" type="traffic_light" x="531.979609205" y="-14.3599072467" /><node id="5" type="traffic_light" x="265.488729335" y="-455.591735864" /><node id="6" type="traffic_light" x="26.5698123672" y="-8.85034374661" /><node id="7" type="traffic_light" x="1153.33676978" y="-191.247542709" /><node id="8" type="traffic_light" x="173.737892976" y="-307.758503667" /><node id="9" type="traffic_light" x="1821.59868713" y="472.963136707" /><node id="10" type="traffic_light" x="1609.21882641" y="-19.663035476" /><node id="11" type="traffic_light" x="1390.26568986" y="355.74100164" /><node id="12" type="traffic_light" x="315.160968494" y="42.7493973621" /><node id="13" type="traffic_light" x="38.5540213617" y="-32.3160298965" /><node id="14" type="traffic_light" x="2064.69493708" y="204.27312404" /><node id="15" type="traffic_light" x="1221.04483373" y="222.176611233" /><node id="16" type="traffic_light" x="1221.07641055" y="-329.080927419" /><node id="17" type="traffic_light" x="344.59968864" y="-455.258449238" /><node id="18" type="traffic_light" x="1897.01082031" y="492.506938522" /><node id="19" type="traffic_light" x="980.36922705" y="157.120731313" /><node id="20" type="traffic_light" x="368.266401635" y="-453.702849761" /><node id="21" type="traffic_light" x="2320.37613923" y="71.5190374038" /><node id="22" type="traffic_light" x="2109.89298778" y="114.235651269" /><node id="23" type="traffic_light" x="1588.92755612" y="23.1739259944" /><node id="24" type="traffic_light" x="1418.03179918" y="-172.704159494" /><node id="25" type="traffic_light" x="1307.46453397" y="43.7988634766" /><node id="26" type="traffic_light" x="386.482840756" y="-102.257496908" /><node id="27" type="traffic_light" x="2324.44200326" y="61.0083177147" /><node id="28" type="traffic_light" x="1502.05697859" y="198.429865632" /><node id="29" type="traffic_light" x="1817.26461051" y="463.010495759" /><node id="30" type="traffic_light" x="2046.79342191" y="243.0618948" /><node id="31" type="traffic_light" x="1657.15429686" y="429.074262141" /><node id="32" type="traffic_light" x="1785.47091394" y="172.914969966" /><node id="33" type="traffic_light" x="1165.19643602" y="-215.654457123" /><node id="34" type="traffic_light" x="360.865687028" y="-256.11673283" /><node id="35" type="traffic_light" x="1865.44452399" y="461.668644023" /><node id="36" type="traffic_light" x="1649.1736163" y="437.480235784" /><node id="37" type="traffic_light" x="2182.49433431" y="-26.3210113851" /><node id="38" type="traffic_light" x="1546.13333674" y="108.627216518" /><node id="39" type="traffic_light" x="448.54258424" y="-437.961619365" /><node id="40" type="traffic_light" x="196.203351442" y="-353.563857168" /><node id="41" type="traffic_light" x="856.989447093" y="-174.999024714" /><node id="42" type="traffic_light" x="748.786672877" y="44.2345977998" /><node id="43" type="traffic_light" x="159.574288232" y="-279.144921412" /><node id="44" type="traffic_light" x="698.898491603" y="146.403881266" /><node id="45" type="traffic_light" x="950.916579716" y="213.862868087" /><node id="46" type="traffic_light" x="1523.46770748" y="154.807185197" /><node id="47" type="traffic_light" x="137.004116218" y="72.2647475195" /><node id="48" type="traffic_light" x="302.266440022" y="-477.48058424" /><node id="49" type="traffic_light" x="1132.64013346" y="-149.019514694" /><node id="50" type="traffic_light" x="1896.43282061" y="404.310906785" /><node id="51" type="traffic_light" x="1111.78849778" y="-106.537576924" /><node id="52" type="traffic_light" x="1024.72556062" y="69.8342875021" /><node id="53" type="traffic_light" x="2132.78133525" y="72.1504144319" /><node id="54" type="traffic_light" x="430.948002039" y="-193.429947706" /><node id="55" type="traffic_light" x="498.047637907" y="-420.840550379" /><node id="56" type="traffic_light" x="573.574809283" y="-100.339723788" /><node id="57" type="traffic_light" x="813.699493606" y="-89.5463814254" /><node id="58" type="traffic_light" x="224.759108737" y="-430.67356399" /><node id="59" type="traffic_light" x="326.155362211" y="-470.480646927" /><node id="60" type="traffic_light" x="1243.14715398" y="177.046693314" /><node id="61" type="traffic_light" x="1762.15170971" y="220.031983137" /><node id="62" type="traffic_light" x="1867.37641836" y="514.518577486" /><node id="63" type="traffic_light" x="164.70527338" y="400.155756144" /><node id="64" type="traffic_light" x="1871.59862892" y="550.51859155" /><node id="65" type="traffic_light" x="504.943229867" y="-434.854918484" /><node id="66" type="traffic_light" x="1670.67432476" y="408.866625446" /><node id="67" type="traffic_light" x="35.9073614381" y="270.49835706" /><node id="68" type="traffic_light" x="975.458516433" y="249.590558991" /><node id="69" type="traffic_light" x="535.059303713" y="-410.740386522" /><node id="70" type="traffic_light" x="1892.39647356" y="-44.3413053456" /><node id="71" type="traffic_light" x="1918.979076" y="410.581920362" /><node id="72" type="traffic_light" x="370.933090789" y="-459.258423418" /><node id="73" type="traffic_light" x="260.208418843" y="-485.443143361" /><node id="74" type="traffic_light" x="1003.5064789" y="112.82642849" /><node id="75" type="traffic_light" x="258.488701189" y="-439.591783046" /><node id="76" type="traffic_light" x="1639.48770674" y="428.518713285" /><node id="77" type="traffic_light" x="1286.42591169" y="90.4492999778" /><node id="78" type="traffic_light" x="1195.89790068" y="281.037637942" /><node id="79" type="traffic_light" x="1870.55223923" y="0.102994434743" /><node id="80" type="traffic_light" x="616.251062544" y="-185.789327678" /><node id="81" type="traffic_light" x="161.729680416" y="-282.83711962" /><node id="82" type="traffic_light" x="1519.04331857" y="395.852069564" /><node id="83" type="traffic_light" x="260.155414751" y="-468.369543054" /><node id="84" type="traffic_light" x="1393.00085092" y="-127.792013906" /><node id="85" type="traffic_light" x="1848.81003241" y="44.6989224977" /><node id="86" type="traffic_light" x="1898.0431155" y="526.296374582" /><node id="87" type="traffic_light" x="292.822003295" y="-471.147262433" /><node id="88" type="traffic_light" x="127.947765224" y="-214.524337187" /><node id="89" type="traffic_light" x="1031.1498077" y="-277.596132638" /><node id="90" type="traffic_light" x="109.095960038" y="-178.17397257" /><node id="91" type="traffic_light" x="245.825032555" y="-471.944042765" /><node id="92" type="traffic_light" x="1124.5991567" y="-458.03621327" /><node id="93" type="traffic_light" x="13.6134881016" y="310.98110672" /><node id="94" type="traffic_light" x="33.3055452601" y="-22.0394056056" /><node id="95" type="traffic_light" x="878.216142813" y="-218.251158455" /><node id="96" type="traffic_light" x="1461.94115117" y="385.836680839" /><node id="97" type="traffic_light" x="832.17415406" y="-128.030710505" /><node id="98" type="traffic_light" x="681.624180328" y="-319.952581632" /><node id="99" type="traffic_light" x="1697.91884701" y="-200.948208642" /><node id="100" type="traffic_light" x="2155.77658715" y="26.939524353" /><node id="101" type="traffic_light" x="421.336319529" y="-433.496596004" /><node id="102" type="traffic_light" x="1046.32448746" y="26.078776075" /><node id="103" type="traffic_light" x="281.506338441" y="-527.186370886" /><node id="104" type="traffic_light" x="455.460927398" y="107.245458783" /><node id="105" type="traffic_light" x="509.35574494" y="30.2362912146" /><node id="106" type="traffic_light" x="407.316509853" y="-145.704181285" /><node id="107" type="traffic_light" x="1653.0910227" y="-108.85555232" /><node id="108" type="traffic_light" x="1457.50621212" y="286.633572541" /><node id="109" type="traffic_light" x="1352.61279647" y="-41.9999788163" /><node id="110" type="traffic_light" x="43.3710656963" y="-195.394707878" /><node id="111" type="traffic_light" x="439.371353847" y="-212.47228936" /><node id="112" type="traffic_light" x="482.529759118" y="88.4159486373" /><node id="113" type="traffic_light" x="164.910733491" y="-289.045897686" /><node id="114" type="traffic_light" x="14.3754809076" y="15.8331705065" /><node id="115" type="traffic_light" x="660.761956796" y="-277.26746954" /><node id="116" type="traffic_light" x="703.290147673" y="-365.384727403" /><node id="117" type="traffic_light" x="381.856312297" y="-480.23924527" /><node id="118" type="traffic_light" x="516.710723231" y="-451.813999732" /><node id="119" type="traffic_light" x="1805.31936476" y="134.226284052" /><node id="120" type="traffic_light" x="110.00134837" y="-525.304627255" /><node id="121" type="traffic_light" x="639.960007736" y="-233.210571506" /><node id="122" type="traffic_light" x="2088.70784963" y="157.45786164" /><node id="123" type="traffic_light" x="898.669505503" y="-261.229433449" /><node id="124" type="traffic_light" x="1161.04362606" y="284.185463498" /><node id="125" type="traffic_light" x="243.266389487" y="36.1856533998" /><node id="126" type="traffic_light" x="188.884089793" y="55.5114813202" /><node id="127" type="traffic_light" x="215.871401043" y="-394.27189439" /><node id="128" type="traffic_light" x="1430.70928808" y="344.281437329" /><node id="129" type="traffic_light" x="791.123112602" y="-41.9002598942" /><node id="130" type="traffic_light" x="1828.15728415" y="87.0801564592" /><node id="131" type="traffic_light" x="1089.43610125" y="-58.8404205197" /><node id="132" type="traffic_light" x="769.414018338" y="0.94052579942" /><node id="133" type="traffic_light" x="1653.70988617" y="432.851996892" /><node id="134" type="traffic_light" x="130.864856811" y="-220.251607291" /><node id="135" type="traffic_light" x="366.044193727" y="-448.70285278" /><node id="136" type="traffic_light" x="726.574645931" y="88.8302879717" /><node id="137" type="traffic_light" x="920.343802882" y="-306.869443677" /><node id="138" type="traffic_light" x="493.329704404" y="-322.016768326" /><node id="139" type="traffic_light" x="514.83397148" y="-364.856371456" /><node id="140" type="traffic_light" x="365.509359262" y="-59.4884671187" /><node id="141" type="traffic_light" x="88.7761868132" y="-134.424615199" /><node id="142" type="traffic_light" x="1263.28429263" y="133.829745389" /><node id="143" type="traffic_light" x="23.1777747123" y="414.814009016" /><node id="144" type="traffic_light" x="1630.83792829" y="-63.6483053723" /><node id="145" type="traffic_light" x="65.995491242" y="-89.8280394995" /><node id="146" type="traffic_light" x="553.099061489" y="-57.2751831274" /><node id="147" type="traffic_light" x="1372.19847012" y="-84.4199413422" /><node id="148" type="traffic_light" x="596.537890631" y="-147.987058394" /><node id="149" type="traffic_light" x="1698.62209509" y="350.915707365" /><node id="150" type="traffic_light" x="1176.08126192" y="-238.055172802" /><node id="151" type="traffic_light" x="172.410911302" y="153.774031231" /><node id="152" type="traffic_light" x="1741.60376631" y="262.870117824" /><node id="153" type="traffic_light" x="1565.14649783" y="70.5209681216" /><node id="154" type="traffic_light" x="1480.3359986" y="240.591376504" /><node id="155" type="traffic_light" x="318.758719939" y="-222.441804894" /><node id="156" type="traffic_light" x="1068.28885543" y="-20.6508678569" /><node id="157" type="traffic_light" x="471.724778373" y="-278.79562049" /><node id="158" type="traffic_light" x="241.876357797" y="-432.058224831" /></nodes>