<?xml version="1.0" encoding="iso-8859-1"?>
<configuration xmlns:xsi="http://www.w3.org/2001/XMLSchema-instance"
 xsi:noNamespaceSchemaLocation="http://sumo.sf.net/xsd/sumoConfiguration.xsd">
    <input>
        <net-file value="traffic_ml.net.xml"/>
        <route-files value="traffic_ml.rou.xml"/>
    </input>
    <time>
        <begin value="0"/>
    </time>
    <time-to-teleport value="-1"/>
</configuration>
