<?xml version="1.0" encoding="UTF-8"?>

<!-- generated on Fri Dec  8 04:51:11 2017 by SUMO netconvert Version 0.31.0
<?xml version="1.0" encoding="UTF-8"?>

<configuration xmlns:xsi="http://www.w3.org/2001/XMLSchema-instance" xsi:noNamespaceSchemaLocation="http://sumo.dlr.de/xsd/netconvertConfiguration.xsd">

    <input>
        <node-files value="traffic_ml.nod.xml"/>
        <edge-files value="traffic_ml.edg.xml"/>
    </input>

    <output>
        <output-file value="traffic_ml.net.xml"/>
    </output>

</configuration>
-->

<net version="0.27" xmlns:xsi="http://www.w3.org/2001/XMLSchema-instance" xsi:noNamespaceSchemaLocation="http://sumo.dlr.de/xsd/net_file.xsd">

    <location netOffset="2394218140.67,-1426155826.40" convBoundary="0.00,0.00,756799.98,326654.04" origBoundary="-2394218140.67,1426155826.40,-2393461340.69,1426482480.44" projParameter="!"/>

    <edge id=":0_0" function="internal">
        <lane id=":0_0_0" index="0" speed="13.90" length="9.15" shape="156345.60,155443.31 156343.17,155443.00 156341.10,155443.47 156339.37,155444.72 156338.00,155446.75"/>
    </edge>
    <edge id=":0_1" function="internal">
        <lane id=":0_1_0" index="0" speed="13.90" length="18.92" shape="156345.60,155443.31 156327.33,155438.37"/>
        <lane id=":0_1_1" index="1" speed="13.90" length="18.92" shape="156346.46,155440.13 156328.20,155435.19"/>
    </edge>
    <edge id=":0_3" function="internal">
        <lane id=":0_3_0" index="0" speed="13.90" length="17.47" shape="156346.46,155440.13 156341.93,155438.18 156339.42,155435.32 156338.92,155431.55 156340.44,155426.86"/>
    </edge>
    <edge id=":0_4" function="internal">
        <lane id=":0_4_0" index="0" speed="13.90" length="4.82" shape="156346.46,155440.13 156345.48,155439.01 156345.29,155438.11 156345.91,155437.42 156347.31,155436.94"/>
    </edge>
    <edge id=":0_5" function="internal">
        <lane id=":0_5_0" index="0" speed="13.90" length="5.25" shape="156346.36,155429.77 156345.91,155431.18 156346.06,155432.31 156346.81,155433.17 156348.17,155433.75"/>
    </edge>
    <edge id=":0_6" function="internal">
        <lane id=":0_6_0" index="0" speed="13.90" length="18.92" shape="156346.36,155429.77 156338.00,155446.75"/>
        <lane id=":0_6_1" index="1" speed="13.90" length="18.92" shape="156343.40,155428.31 156335.04,155445.29"/>
    </edge>
    <edge id=":0_8" function="internal">
        <lane id=":0_8_0" index="0" speed="13.90" length="7.14" shape="156343.40,155428.31 156340.66,155432.39 156338.85,155433.70"/>
    </edge>
    <edge id=":0_9" function="internal">
        <lane id=":0_9_0" index="0" speed="13.90" length="2.41" shape="156343.40,155428.31 156342.11,155429.06 156341.19,155429.07"/>
    </edge>
    <edge id=":0_20" function="internal">
        <lane id=":0_20_0" index="0" speed="13.90" length="11.19" shape="156338.85,155433.70 156337.22,155434.89 156333.06,155435.82 156328.20,155435.19"/>
    </edge>
    <edge id=":0_21" function="internal">
        <lane id=":0_21_0" index="0" speed="13.90" length="2.41" shape="156341.19,155429.07 156340.63,155428.34 156340.44,155426.86"/>
    </edge>
    <edge id=":0_10" function="internal">
        <lane id=":0_10_0" index="0" speed="13.90" length="9.10" shape="156329.93,155428.82 156332.34,155429.14 156334.40,155428.67 156336.11,155427.43 156337.47,155425.41"/>
    </edge>
    <edge id=":0_11" function="internal">
        <lane id=":0_11_0" index="0" speed="13.90" length="18.90" shape="156329.93,155428.82 156348.17,155433.75"/>
        <lane id=":0_11_1" index="1" speed="13.90" length="18.90" shape="156329.06,155432.00 156347.31,155436.94"/>
    </edge>
    <edge id=":0_13" function="internal">
        <lane id=":0_13_0" index="0" speed="13.90" length="17.47" shape="156329.06,155432.00 156333.58,155433.96 156336.09,155436.83 156336.57,155440.60 156335.04,155445.29"/>
    </edge>
    <edge id=":0_14" function="internal">
        <lane id=":0_14_0" index="0" speed="13.90" length="4.82" shape="156329.06,155432.00 156330.04,155433.13 156330.22,155434.03 156329.61,155434.72 156328.20,155435.19"/>
    </edge>
    <edge id=":0_15" function="internal">
        <lane id=":0_15_0" index="0" speed="13.90" length="5.25" shape="156329.13,155442.36 156329.59,155440.96 156329.44,155439.82 156328.69,155438.96 156327.33,155438.37"/>
    </edge>
    <edge id=":0_16" function="internal">
        <lane id=":0_16_0" index="0" speed="13.90" length="18.90" shape="156329.13,155442.36 156337.47,155425.41"/>
        <lane id=":0_16_1" index="1" speed="13.90" length="18.90" shape="156332.09,155443.83 156340.44,155426.86"/>
    </edge>
    <edge id=":0_18" function="internal">
        <lane id=":0_18_0" index="0" speed="13.90" length="7.11" shape="156332.09,155443.83 156334.83,155439.76 156336.62,155438.47"/>
    </edge>
    <edge id=":0_19" function="internal">
        <lane id=":0_19_0" index="0" speed="13.90" length="2.41" shape="156332.09,155443.83 156333.37,155443.08 156334.30,155443.08"/>
    </edge>
    <edge id=":0_22" function="internal">
        <lane id=":0_22_0" index="0" speed="13.90" length="11.23" shape="156336.62,155438.47 156338.29,155437.26 156342.45,155436.32 156347.31,155436.94"/>
    </edge>
    <edge id=":0_23" function="internal">
        <lane id=":0_23_0" index="0" speed="13.90" length="2.41" shape="156334.30,155443.08 156334.85,155443.81 156335.04,155445.29"/>
    </edge>
    <edge id=":1_0" function="internal">
        <lane id=":1_0_0" index="0" speed="13.90" length="9.63" shape="454541.41,161499.92 454538.84,161499.57 454536.64,161500.04 454534.80,161501.31 454533.33,161503.40"/>
    </edge>
    <edge id=":1_1" function="internal">
        <lane id=":1_1_0" index="0" speed="13.90" length="19.32" shape="454541.41,161499.92 454522.77,161494.85"/>
        <lane id=":1_1_1" index="1" speed="13.90" length="19.32" shape="454542.28,161496.74 454523.64,161491.67"/>
    </edge>
    <edge id=":1_3" function="internal">
        <lane id=":1_3_0" index="0" speed="13.90" length="6.79" shape="454542.28,161496.74 454537.65,161494.73 454536.51,161493.41"/>
    </edge>
    <edge id=":1_4" function="internal">
        <lane id=":1_4_0" index="0" speed="13.90" length="2.41" shape="454542.28,161496.74 454541.30,161495.61 454541.12,161494.71"/>
    </edge>
    <edge id=":1_20" function="internal">
        <lane id=":1_20_0" index="0" speed="13.90" length="10.99" shape="454536.51,161493.41 454535.14,161491.81 454534.74,161487.99 454536.46,161483.25"/>
    </edge>
    <edge id=":1_21" function="internal">
        <lane id=":1_21_0" index="0" speed="13.90" length="2.41" shape="454541.12,161494.71 454541.74,161494.02 454543.15,161493.55"/>
    </edge>
    <edge id=":1_5" function="internal">
        <lane id=":1_5_0" index="0" speed="13.90" length="5.29" shape="454542.28,161486.35 454541.77,161487.76 454541.89,161488.90 454542.64,161489.77 454544.01,161490.37"/>
    </edge>
    <edge id=":1_6" function="internal">
        <lane id=":1_6_0" index="0" speed="13.90" length="19.28" shape="454542.28,161486.35 454533.33,161503.40"/>
        <lane id=":1_6_1" index="1" speed="13.90" length="19.28" shape="454539.37,161484.80 454530.40,161501.89"/>
    </edge>
    <edge id=":1_8" function="internal">
        <lane id=":1_8_0" index="0" speed="13.90" length="18.75" shape="454539.37,161484.80 454536.44,161488.88 454532.84,161491.38 454528.57,161492.31 454523.64,161491.67"/>
    </edge>
    <edge id=":1_9" function="internal">
        <lane id=":1_9_0" index="0" speed="13.90" length="4.82" shape="454539.37,161484.80 454538.06,161485.50 454537.14,161485.48 454536.61,161484.73 454536.46,161483.25"/>
    </edge>
    <edge id=":1_10" function="internal">
        <lane id=":1_10_0" index="0" speed="13.90" length="9.77" shape="454525.36,161485.30 454527.93,161485.63 454530.15,161485.14 454532.02,161483.83 454533.55,161481.69"/>
    </edge>
    <edge id=":1_11" function="internal">
        <lane id=":1_11_0" index="0" speed="13.90" length="19.33" shape="454525.36,161485.30 454544.01,161490.37"/>
        <lane id=":1_11_1" index="1" speed="13.90" length="19.33" shape="454524.50,161488.48 454543.15,161493.55"/>
    </edge>
    <edge id=":1_13" function="internal">
        <lane id=":1_13_0" index="0" speed="13.90" length="6.78" shape="454524.50,161488.48 454529.09,161490.46 454530.25,161491.81"/>
    </edge>
    <edge id=":1_14" function="internal">
        <lane id=":1_14_0" index="0" speed="13.90" length="2.41" shape="454524.50,161488.48 454525.48,161489.60 454525.66,161490.51"/>
    </edge>
    <edge id=":1_22" function="internal">
        <lane id=":1_22_0" index="0" speed="13.90" length="10.88" shape="454530.25,161491.81 454531.60,161493.36 454532.04,161497.16 454530.40,161501.89"/>
    </edge>
    <edge id=":1_23" function="internal">
        <lane id=":1_23_0" index="0" speed="13.90" length="2.41" shape="454525.66,161490.51 454525.05,161491.19 454523.64,161491.67"/>
    </edge>
    <edge id=":1_15" function="internal">
        <lane id=":1_15_0" index="0" speed="13.90" length="5.27" shape="454524.53,161498.86 454525.02,161497.45 454524.89,161496.31 454524.14,161495.44 454522.77,161494.85"/>
    </edge>
    <edge id=":1_16" function="internal">
        <lane id=":1_16_0" index="0" speed="13.90" length="19.37" shape="454524.53,161498.86 454533.55,161481.69"/>
        <lane id=":1_16_1" index="1" speed="13.90" length="19.37" shape="454527.47,161500.37 454536.46,161483.25"/>
    </edge>
    <edge id=":1_18" function="internal">
        <lane id=":1_18_0" index="0" speed="13.90" length="18.72" shape="454527.47,161500.37 454530.33,161496.30 454533.90,161493.80 454538.17,161492.89 454543.15,161493.55"/>
    </edge>
    <edge id=":1_19" function="internal">
        <lane id=":1_19_0" index="0" speed="13.90" length="4.82" shape="454527.47,161500.37 454528.77,161499.65 454529.69,161499.66 454530.23,161500.41 454530.40,161501.89"/>
    </edge>
    <edge id=":10_0" function="internal">
        <lane id=":10_0_0" index="0" speed="13.90" length="8.97" shape="540022.68,153838.31 540020.25,153838.00 540018.20,153838.45 540016.53,153839.66 540015.23,153841.62"/>
    </edge>
    <edge id=":10_1" function="internal">
        <lane id=":10_1_0" index="0" speed="13.90" length="18.85" shape="540022.68,153838.31 540004.46,153833.40"/>
        <lane id=":10_1_1" index="1" speed="13.90" length="18.85" shape="540023.52,153835.12 540005.34,153830.22"/>
    </edge>
    <edge id=":10_3" function="internal">
        <lane id=":10_3_0" index="0" speed="13.90" length="6.82" shape="540023.52,153835.12 540018.95,153833.19 540017.71,153831.79"/>
    </edge>
    <edge id=":10_4" function="internal">
        <lane id=":10_4_0" index="0" speed="13.90" length="2.41" shape="540023.52,153835.12 540022.53,153834.01 540022.34,153833.10"/>
    </edge>
    <edge id=":10_20" function="internal">
        <lane id=":10_20_0" index="0" speed="13.90" length="10.72" shape="540017.71,153831.79 540016.42,153830.34 540015.92,153826.55 540017.45,153821.84"/>
    </edge>
    <edge id=":10_21" function="internal">
        <lane id=":10_21_0" index="0" speed="13.90" length="2.41" shape="540022.34,153833.10 540022.95,153832.41 540024.35,153831.92"/>
    </edge>
    <edge id=":10_5" function="internal">
        <lane id=":10_5_0" index="0" speed="13.90" length="5.26" shape="540023.37,153824.75 540022.91,153826.17 540023.06,153827.30 540023.82,153828.16 540025.19,153828.73"/>
    </edge>
    <edge id=":10_6" function="internal">
        <lane id=":10_6_0" index="0" speed="13.90" length="18.76" shape="540023.37,153824.75 540015.23,153841.62"/>
        <lane id=":10_6_1" index="1" speed="13.90" length="18.76" shape="540020.41,153823.30 540012.25,153840.21"/>
    </edge>
    <edge id=":10_8" function="internal">
        <lane id=":10_8_0" index="0" speed="13.90" length="18.23" shape="540020.41,153823.30 540017.67,153827.39 540014.24,153829.91 540010.13,153830.85 540005.34,153830.22"/>
    </edge>
    <edge id=":10_9" function="internal">
        <lane id=":10_9_0" index="0" speed="13.90" length="4.82" shape="540020.41,153823.30 540019.12,153824.04 540018.20,153824.05 540017.64,153823.32 540017.45,153821.84"/>
    </edge>
    <edge id=":10_10" function="internal">
        <lane id=":10_10_0" index="0" speed="13.90" length="8.97" shape="540007.10,153823.86 540009.43,153824.16 540011.44,153823.68 540013.13,153822.42 540014.49,153820.39"/>
    </edge>
    <edge id=":10_11" function="internal">
        <lane id=":10_11_0" index="0" speed="13.90" length="18.76" shape="540007.10,153823.86 540025.19,153828.73"/>
        <lane id=":10_11_1" index="1" speed="13.90" length="18.76" shape="540006.22,153827.04 540024.35,153831.92"/>
    </edge>
    <edge id=":10_13" function="internal">
        <lane id=":10_13_0" index="0" speed="13.90" length="6.60" shape="540006.22,153827.04 540010.66,153828.99 540011.81,153830.31"/>
    </edge>
    <edge id=":10_14" function="internal">
        <lane id=":10_14_0" index="0" speed="13.90" length="2.41" shape="540006.22,153827.04 540007.19,153828.17 540007.37,153829.07"/>
    </edge>
    <edge id=":10_22" function="internal">
        <lane id=":10_22_0" index="0" speed="13.90" length="10.65" shape="540011.81,153830.31 540013.15,153831.83 540013.67,153835.57 540012.25,153840.21"/>
    </edge>
    <edge id=":10_23" function="internal">
        <lane id=":10_23_0" index="0" speed="13.90" length="2.41" shape="540007.37,153829.07 540006.75,153829.76 540005.34,153830.22"/>
    </edge>
    <edge id=":10_15" function="internal">
        <lane id=":10_15_0" index="0" speed="13.90" length="5.22" shape="540006.28,153837.39 540006.71,153835.98 540006.55,153834.85 540005.80,153833.99 540004.46,153833.40"/>
    </edge>
    <edge id=":10_16" function="internal">
        <lane id=":10_16_0" index="0" speed="13.90" length="18.85" shape="540006.28,153837.39 540014.49,153820.39"/>
        <lane id=":10_16_1" index="1" speed="13.90" length="18.85" shape="540009.26,153838.80 540017.45,153821.84"/>
    </edge>
    <edge id=":10_18" function="internal">
        <lane id=":10_18_0" index="0" speed="13.90" length="18.23" shape="540009.26,153838.80 540011.92,153834.76 540015.32,153832.26 540019.46,153831.32 540024.35,153831.92"/>
    </edge>
    <edge id=":10_19" function="internal">
        <lane id=":10_19_0" index="0" speed="13.90" length="4.82" shape="540009.26,153838.80 540010.54,153838.03 540011.46,153838.01 540012.03,153838.74 540012.25,153840.21"/>
    </edge>
    <edge id=":100_0" function="internal">
        <lane id=":100_0_0" index="0" speed="13.90" length="17.61" shape="705692.44,167974.26 705686.42,167969.95 705681.88,167967.34 705678.81,167966.43 705677.23,167967.22"/>
    </edge>
    <edge id=":100_1" function="internal">
        <lane id=":100_1_0" index="0" speed="13.90" length="30.93" shape="705692.44,167974.26 705686.42,167969.63 705680.19,167965.17 705673.65,167961.36 705666.67,167958.67"/>
        <lane id=":100_1_1" index="1" speed="13.90" length="30.93" shape="705694.44,167971.63 705688.24,167966.92 705681.63,167962.27 705674.69,167958.27 705667.54,167955.49"/>
    </edge>
    <edge id=":100_3" function="internal">
        <lane id=":100_3_0" index="0" speed="13.90" length="31.88" shape="705694.44,167971.63 705686.36,167964.46 705681.44,167957.70 705679.66,167951.34 705681.03,167945.39"/>
    </edge>
    <edge id=":100_4" function="internal">
        <lane id=":100_4_0" index="0" speed="13.90" length="32.62" shape="705694.44,167971.63 705686.37,167964.22 705684.63,167959.16 705689.25,167956.46 705700.20,167956.11"/>
    </edge>
    <edge id=":100_5" function="internal">
        <lane id=":100_5_0" index="0" speed="13.90" length="4.82" shape="705694.44,167971.63 705693.96,167970.23 705694.13,167969.32 705694.96,167968.92 705696.45,167969.01"/>
    </edge>
    <edge id=":100_6" function="internal">
        <lane id=":100_6_0" index="0" speed="13.90" length="7.76" shape="705699.82,167962.70 705697.21,167962.78 705696.12,167963.42 705696.53,167964.63 705698.45,167966.39"/>
    </edge>
    <edge id=":100_7" function="internal">
        <lane id=":100_7_0" index="0" speed="13.90" length="23.85" shape="705699.82,167962.70 705691.03,167962.55 705684.34,167963.25 705679.74,167964.81 705677.23,167967.22"/>
    </edge>
    <edge id=":100_8" function="internal">
        <lane id=":100_8_0" index="0" speed="13.90" length="33.10" shape="705699.82,167962.70 705691.78,167962.19 705683.12,167961.45 705674.52,167960.33 705666.67,167958.67"/>
        <lane id=":100_8_1" index="1" speed="13.90" length="33.10" shape="705700.01,167959.40 705692.08,167958.91 705683.65,167958.21 705675.28,167957.13 705667.54,167955.49"/>
    </edge>
    <edge id=":100_10" function="internal">
        <lane id=":100_10_0" index="0" speed="13.90" length="28.83" shape="705700.01,167959.40 705689.30,167957.97 705682.57,167955.16 705679.81,167950.96 705681.03,167945.39"/>
    </edge>
    <edge id=":100_11" function="internal">
        <lane id=":100_11_0" index="0" speed="13.90" length="4.82" shape="705700.01,167959.40 705698.82,167958.51 705698.46,167957.66 705698.92,167956.86 705700.20,167956.11"/>
    </edge>
    <edge id=":100_12" function="internal">
        <lane id=":100_12_0" index="0" speed="13.90" length="15.38" shape="705686.90,167948.40 705687.07,167950.00 705689.38,167951.26 705693.82,167952.20 705700.40,167952.81"/>
    </edge>
    <edge id=":100_13" function="internal">
        <lane id=":100_13_0" index="0" speed="13.90" length="22.76" shape="705686.90,167948.40 705686.36,167952.00 705688.10,167956.19 705692.13,167960.99 705698.45,167966.39"/>
    </edge>
    <edge id=":100_14" function="internal">
        <lane id=":100_14_0" index="0" speed="13.90" length="21.16" shape="705686.90,167948.40 705677.23,167967.22"/>
        <lane id=":100_14_1" index="1" speed="13.90" length="21.16" shape="705683.97,167946.89 705674.30,167965.71"/>
    </edge>
    <edge id=":100_16" function="internal">
        <lane id=":100_16_0" index="0" speed="13.90" length="8.35" shape="705683.97,167946.89 705680.74,167951.73 705678.76,167953.31"/>
    </edge>
    <edge id=":100_17" function="internal">
        <lane id=":100_17_0" index="0" speed="13.90" length="2.41" shape="705683.97,167946.89 705682.67,167947.62 705681.75,167947.61"/>
    </edge>
    <edge id=":100_30" function="internal">
        <lane id=":100_30_0" index="0" speed="13.90" length="11.94" shape="705678.76,167953.31 705676.92,167954.78 705672.52,167956.03 705667.54,167955.49"/>
    </edge>
    <edge id=":100_31" function="internal">
        <lane id=":100_31_0" index="0" speed="13.90" length="2.41" shape="705681.75,167947.61 705681.20,167946.87 705681.03,167945.39"/>
    </edge>
    <edge id=":100_18" function="internal">
        <lane id=":100_18_0" index="0" speed="13.90" length="11.20" shape="705669.27,167949.12 705671.84,167949.34 705674.17,167948.54 705676.25,167946.73 705678.09,167943.89"/>
    </edge>
    <edge id=":100_19" function="internal">
        <lane id=":100_19_0" index="0" speed="13.90" length="31.74" shape="705669.27,167949.12 705676.80,167950.72 705684.71,167951.73 705692.68,167952.36 705700.40,167952.81"/>
        <lane id=":100_19_1" index="1" speed="13.90" length="31.74" shape="705668.40,167952.31 705676.04,167953.92 705684.18,167954.97 705692.38,167955.64 705700.20,167956.11"/>
    </edge>
    <edge id=":100_21" function="internal">
        <lane id=":100_21_0" index="0" speed="13.90" length="32.82" shape="705668.40,167952.31 705675.74,167955.17 705683.06,167959.37 705690.07,167964.21 705696.45,167969.01"/>
    </edge>
    <edge id=":100_22" function="internal">
        <lane id=":100_22_0" index="0" speed="13.90" length="17.65" shape="705668.40,167952.31 705672.98,167954.29 705675.49,167957.18 705675.93,167960.99 705674.30,167965.71"/>
    </edge>
    <edge id=":100_23" function="internal">
        <lane id=":100_23_0" index="0" speed="13.90" length="4.82" shape="705668.40,167952.31 705669.38,167953.43 705669.56,167954.33 705668.95,167955.02 705667.54,167955.49"/>
    </edge>
    <edge id=":100_24" function="internal">
        <lane id=":100_24_0" index="0" speed="13.90" length="5.27" shape="705668.43,167962.68 705668.92,167961.27 705668.79,167960.13 705668.04,167959.27 705666.67,167958.67"/>
    </edge>
    <edge id=":100_25" function="internal">
        <lane id=":100_25_0" index="0" speed="13.90" length="21.14" shape="705668.43,167962.68 705678.09,167943.89"/>
        <lane id=":100_25_1" index="1" speed="13.90" length="21.14" shape="705671.36,167964.19 705681.03,167945.39"/>
    </edge>
    <edge id=":100_27" function="internal">
        <lane id=":100_27_0" index="0" speed="13.90" length="5.97" shape="705671.36,167964.19 705675.00,167960.13 705675.47,167959.92"/>
    </edge>
    <edge id=":100_28" function="internal">
        <lane id=":100_28_0" index="0" speed="13.90" length="5.22" shape="705671.36,167964.19 705674.92,167960.64 705675.11,167960.62"/>
    </edge>
    <edge id=":100_29" function="internal">
        <lane id=":100_29_0" index="0" speed="13.90" length="2.41" shape="705671.36,167964.19 705672.66,167963.47 705673.59,167963.48"/>
    </edge>
    <edge id=":100_32" function="internal">
        <lane id=":100_32_0" index="0" speed="13.90" length="25.37" shape="705675.47,167959.92 705681.02,167957.43 705689.42,167956.09 705700.20,167956.11"/>
    </edge>
    <edge id=":100_33" function="internal">
        <lane id=":100_33_0" index="0" speed="13.90" length="23.67" shape="705675.11,167960.62 705680.29,167960.26 705687.46,167963.05 705696.45,167969.01"/>
    </edge>
    <edge id=":100_34" function="internal">
        <lane id=":100_34_0" index="0" speed="13.90" length="2.41" shape="705673.59,167963.48 705674.13,167964.23 705674.30,167965.71"/>
    </edge>
    <edge id=":101_0" function="internal">
        <lane id=":101_0_0" index="0" speed="13.90" length="0.28" shape="179964.50,28402.32 179964.25,28402.25"/>
        <lane id=":101_0_1" index="1" speed="13.90" length="0.28" shape="179965.40,28399.14 179965.12,28399.07"/>
    </edge>
    <edge id=":101_2" function="internal">
        <lane id=":101_2_0" index="0" speed="13.90" length="2.41" shape="179965.40,28399.14 179964.43,28398.01 179964.26,28397.11"/>
    </edge>
    <edge id=":101_6" function="internal">
        <lane id=":101_6_0" index="0" speed="13.90" length="2.41" shape="179964.26,28397.11 179964.88,28396.43 179966.30,28395.97"/>
    </edge>
    <edge id=":101_3" function="internal">
        <lane id=":101_3_0" index="0" speed="13.90" length="0.32" shape="179966.87,28392.70 179967.19,28392.79"/>
        <lane id=":101_3_1" index="1" speed="13.90" length="0.32" shape="179966.00,28395.89 179966.30,28395.97"/>
    </edge>
    <edge id=":101_5" function="internal">
        <lane id=":101_5_0" index="0" speed="13.90" length="2.41" shape="179966.00,28395.89 179966.97,28397.01 179967.15,28397.91"/>
    </edge>
    <edge id=":101_7" function="internal">
        <lane id=":101_7_0" index="0" speed="13.90" length="2.41" shape="179967.15,28397.91 179966.54,28398.60 179965.12,28399.07"/>
    </edge>
    <edge id=":102_0" function="internal">
        <lane id=":102_0_0" index="0" speed="13.90" length="9.08" shape="369408.31,167702.72 369405.94,167702.43 369403.90,167702.91 369402.19,167704.18 369400.82,167706.23"/>
    </edge>
    <edge id=":102_1" function="internal">
        <lane id=":102_1_0" index="0" speed="13.90" length="18.82" shape="369408.31,167702.72 369390.14,167697.86"/>
        <lane id=":102_1_1" index="1" speed="13.90" length="18.82" shape="369409.17,167699.53 369390.98,167694.67"/>
    </edge>
    <edge id=":102_3" function="internal">
        <lane id=":102_3_0" index="0" speed="13.90" length="6.68" shape="369409.17,167699.53 369404.69,167697.61 369403.49,167696.25"/>
    </edge>
    <edge id=":102_4" function="internal">
        <lane id=":102_4_0" index="0" speed="13.90" length="2.41" shape="369409.17,167699.53 369408.19,167698.41 369408.00,167697.51"/>
    </edge>
    <edge id=":102_20" function="internal">
        <lane id=":102_20_0" index="0" speed="13.90" length="10.62" shape="369403.49,167696.25 369402.18,167694.78 369401.64,167691.04 369403.06,167686.38"/>
    </edge>
    <edge id=":102_21" function="internal">
        <lane id=":102_21_0" index="0" speed="13.90" length="2.41" shape="369408.00,167697.51 369408.61,167696.82 369410.02,167696.34"/>
    </edge>
    <edge id=":102_5" function="internal">
        <lane id=":102_5_0" index="0" speed="13.90" length="5.23" shape="369409.03,167689.19 369408.60,167690.59 369408.77,167691.72 369409.53,167692.58 369410.88,167693.16"/>
    </edge>
    <edge id=":102_6" function="internal">
        <lane id=":102_6_0" index="0" speed="13.90" length="18.89" shape="369409.03,167689.19 369400.82,167706.23"/>
        <lane id=":102_6_1" index="1" speed="13.90" length="18.89" shape="369406.05,167687.78 369397.86,167704.77"/>
    </edge>
    <edge id=":102_8" function="internal">
        <lane id=":102_8_0" index="0" speed="13.90" length="18.23" shape="369406.05,167687.78 369403.40,167691.85 369400.00,167694.35 369395.87,167695.29 369390.98,167694.67"/>
    </edge>
    <edge id=":102_9" function="internal">
        <lane id=":102_9_0" index="0" speed="13.90" length="4.82" shape="369406.05,167687.78 369404.77,167688.55 369403.85,167688.57 369403.28,167687.85 369403.06,167686.38"/>
    </edge>
    <edge id=":102_10" function="internal">
        <lane id=":102_10_0" index="0" speed="13.90" length="8.92" shape="369392.68,167688.29 369395.09,167688.60 369397.12,167688.15 369398.78,167686.94 369400.07,167684.97"/>
    </edge>
    <edge id=":102_11" function="internal">
        <lane id=":102_11_0" index="0" speed="13.90" length="18.83" shape="369392.68,167688.29 369410.88,167693.16"/>
        <lane id=":102_11_1" index="1" speed="13.90" length="18.83" shape="369391.83,167691.48 369410.02,167696.34"/>
    </edge>
    <edge id=":102_13" function="internal">
        <lane id=":102_13_0" index="0" speed="13.90" length="6.75" shape="369391.83,167691.48 369396.38,167693.42 369397.57,167694.78"/>
    </edge>
    <edge id=":102_14" function="internal">
        <lane id=":102_14_0" index="0" speed="13.90" length="2.41" shape="369391.83,167691.48 369392.82,167692.60 369393.00,167693.50"/>
    </edge>
    <edge id=":102_22" function="internal">
        <lane id=":102_22_0" index="0" speed="13.90" length="10.77" shape="369397.57,167694.78 369398.90,167696.29 369399.40,167700.07 369397.86,167704.77"/>
    </edge>
    <edge id=":102_23" function="internal">
        <lane id=":102_23_0" index="0" speed="13.90" length="2.41" shape="369393.00,167693.50 369392.39,167694.19 369390.98,167694.67"/>
    </edge>
    <edge id=":102_15" function="internal">
        <lane id=":102_15_0" index="0" speed="13.90" length="5.25" shape="369391.94,167701.85 369392.40,167700.44 369392.26,167699.30 369391.50,167698.44 369390.14,167697.86"/>
    </edge>
    <edge id=":102_16" function="internal">
        <lane id=":102_16_0" index="0" speed="13.90" length="18.76" shape="369391.94,167701.85 369400.07,167684.97"/>
        <lane id=":102_16_1" index="1" speed="13.90" length="18.76" shape="369394.90,167703.31 369403.06,167686.38"/>
    </edge>
    <edge id=":102_18" function="internal">
        <lane id=":102_18_0" index="0" speed="13.90" length="18.27" shape="369394.90,167703.31 369397.65,167699.22 369401.08,167696.70 369405.21,167695.74 369410.02,167696.34"/>
    </edge>
    <edge id=":102_19" function="internal">
        <lane id=":102_19_0" index="0" speed="13.90" length="4.82" shape="369394.90,167703.31 369396.19,167702.56 369397.11,167702.56 369397.67,167703.29 369397.86,167704.77"/>
    </edge>
    <edge id=":103_0" function="internal">
        <lane id=":103_0_0" index="0" speed="13.90" length="4.82" shape="137581.55,-0.75 137582.85,-1.48 137583.77,-1.47 137584.32,-0.73 137584.49,0.75"/>
    </edge>
    <edge id=":104_0" function="internal">
        <lane id=":104_0_0" index="0" speed="13.90" length="0.10" shape="190307.62,192302.04 190307.62,192302.04"/>
        <lane id=":104_0_1" index="1" speed="13.90" length="0.10" shape="190308.49,192298.86 190308.49,192298.86"/>
    </edge>
    <edge id=":104_2" function="internal">
        <lane id=":104_2_0" index="0" speed="13.90" length="2.41" shape="190308.49,192298.86 190307.51,192297.74 190307.33,192296.83"/>
    </edge>
    <edge id=":104_6" function="internal">
        <lane id=":104_6_0" index="0" speed="13.90" length="2.41" shape="190307.33,192296.83 190307.95,192296.15 190309.36,192295.68"/>
    </edge>
    <edge id=":104_3" function="internal">
        <lane id=":104_3_0" index="0" speed="13.90" length="0.10" shape="190310.23,192292.50 190310.23,192292.50"/>
        <lane id=":104_3_1" index="1" speed="13.90" length="0.10" shape="190309.36,192295.68 190309.36,192295.68"/>
    </edge>
    <edge id=":104_5" function="internal">
        <lane id=":104_5_0" index="0" speed="13.90" length="2.41" shape="190309.36,192295.68 190310.34,192296.80 190310.52,192297.71"/>
    </edge>
    <edge id=":104_7" function="internal">
        <lane id=":104_7_0" index="0" speed="13.90" length="2.41" shape="190310.52,192297.71 190309.90,192298.39 190308.49,192298.86"/>
    </edge>
    <edge id=":105_0" function="internal">
        <lane id=":105_0_0" index="0" speed="13.90" length="8.82" shape="206652.47,168962.94 206650.06,168962.62 206648.04,168963.04 206646.40,168964.23 206645.14,168966.16"/>
    </edge>
    <edge id=":105_1" function="internal">
        <lane id=":105_1_0" index="0" speed="13.90" length="18.82" shape="206652.47,168962.94 206634.30,168958.05"/>
        <lane id=":105_1_1" index="1" speed="13.90" length="18.82" shape="206653.33,168959.75 206635.15,168954.86"/>
    </edge>
    <edge id=":105_3" function="internal">
        <lane id=":105_3_0" index="0" speed="13.90" length="6.75" shape="206653.33,168959.75 206648.76,168957.79 206647.59,168956.45"/>
    </edge>
    <edge id=":105_4" function="internal">