<edges><edge from="30" id="30to14" numLanes="2" to="14" /><edge from="14" id="14to30" numLanes="2" to="30" /><edge from="14" id="14to122" numLanes="2" to="122" /><edge from="122" id="122to14" numLanes="2" to="14" /><edge from="122" id="122to22" numLanes="2" to="22" /><edge from="22" id="22to122" numLanes="2" to="122" /><edge from="22" id="22to53" numLanes="2" to="53" /><edge from="53" id="53to22" numLanes="2" to="22" /><edge from="149" id="149to108" numLanes="2" to="108" /><edge from="108" id="108to149" numLanes="2" to="149" /><edge from="108" id="108to15" numLanes="2" to="15" /><edge from="15" id="15to108" numLanes="2" to="108" /><edge from="15" id="15to19" numLanes="2" to="19" /><edge from="19" id="19to15" numLanes="2" to="15" /><edge from="19" id="19to136" numLanes="2" to="136" /><edge from="136" id="136to19" numLanes="2" to="19" /><edge from="105" id="105to0" numLanes="2" to="0" /><edge from="0" id="0to105" numLanes="2" to="105" /><edge from="85" id="85to130" numLanes="2" to="130" /><edge from="130" id="130to85" numLanes="2" to="85" /><edge from="119" id="119to159" numLanes="2" to="159" /><edge from="159" id="159to119" numLanes="2" to="119" /><edge from="159" id="159to160" numLanes="2" to="160" /><edge from="160" id="160to159" numLanes="2" to="159" /><edge from="160" id="160to32" numLanes="2" to="32" /><edge from="32" id="32to160" numLanes="2" to="160" /><edge from="32" id="32to61" numLanes="2" to="61" /><edge from="61" id="61to32" numLanes="2" to="32" /><edge from="61" id="61to152" numLanes="2" to="152" /><edge from="152" id="152to61" numLanes="2" to="61" /><edge from="152" id="152to3" numLanes="2" to="3" /><edge from="3" id="3to152" numLanes="2" to="152" /><edge from="70" id="70to161" numLanes="2" to="161" /><edge from="161" id="161to70" numLanes="2" to="70" /><edge from="161" id="161to100" numLanes="2" to="100" /><edge from="100" id="100to161" numLanes="2" to="161" /><edge from="107" id="107to162" numLanes="2" to="162" /><edge from="162" id="162to107" numLanes="2" to="107" /><edge from="162" id="162to163" numLanes="2" to="163" /><edge from="163" id="163to162" numLanes="2" to="162" /><edge from="163" id="163to70" numLanes="2" to="70" /><edge from="70" id="70to163" numLanes="2" to="163" /><edge from="24" id="24to164" numLanes="2" to="164" /><edge from="164" id="164to24" numLanes="2" to="24" /><edge from="164" id="164to165" numLanes="2" to="165" /><edge from="165" id="165to164" numLanes="2" to="164" /><edge from="165" id="165to107" numLanes="2" to="107" /><edge from="107" id="107to165" numLanes="2" to="165" /><edge from="150" id="150to166" numLanes="2" to="166" /><edge from="166" id="166to150" numLanes="2" to="150" /><edge from="166" id="166to167" numLanes="2" to="167" /><edge from="167" id="167to166" numLanes="2" to="166" /><edge from="167" id="167to168" numLanes="2" to="168" /><edge from="168" id="168to167" numLanes="2" to="167" /><edge from="168" id="168to24" numLanes="2" to="24" /><edge from="24" id="24to168" numLanes="2" to="168" /><edge from="69" id="69to169" numLanes="2" to="169" /><edge from="169" id="169to69" numLanes="2" to="69" /><edge from="169" id="169to116" numLanes="2" to="116" /><edge from="116" id="116to169" numLanes="2" to="169" /><edge from="10" id="10to144" numLanes="2" to="144" /><edge from="144" id="144to10" numLanes="2" to="10" /><edge from="153" id="153to23" numLanes="2" to="23" /><edge from="23" id="23to153" numLanes="2" to="153" /><edge from="38" id="38to153" numLanes="2" to="153" /><edge from="153" id="153to38" numLanes="2" to="38" /><edge from="46" id="46to38" numLanes="2" to="38" /><edge from="38" id="38to46" numLanes="2" to="46" /><edge from="28" id="28to46" numLanes="2" to="46" /><edge from="46" id="46to28" numLanes="2" to="28" /><edge from="154" id="154to28" numLanes="2" to="28" /><edge from="28" id="28to154" numLanes="2" to="154" /><edge from="108" id="108to154" numLanes="2" to="154" /><edge from="154" id="154to108" numLanes="2" to="108" /><edge from="128" id="128to108" numLanes="2" to="108" /><edge from="108" id="108to128" numLanes="2" to="128" /><edge from="43" id="43to170" numLanes="2" to="170" /><edge from="170" id="170to43" numLanes="2" to="43" /><edge from="170" id="170to171" numLanes="2" to="171" /><edge from="171" id="171to170" numLanes="2" to="170" /><edge from="171" id="171to172" numLanes="2" to="172" /><edge from="172" id="172to171" numLanes="2" to="171" /><edge from="172" id="172to173" numLanes="2" to="173" /><edge from="173" id="173to172" numLanes="2" to="172" /><edge from="173" id="173to174" numLanes="2" to="174" /><edge from="174" id="174to173" numLanes="2" to="173" /><edge from="174" id="174to175" numLanes="2" to="175" /><edge from="175" id="175to174" numLanes="2" to="174" /><edge from="175" id="175to176" numLanes="2" to="176" /><edge from="176" id="176to175" numLanes="2" to="175" /><edge from="176" id="176to67" numLanes="2" to="67" /><edge from="67" id="67to176" numLanes="2" to="176" /><edge from="84" id="84to147" numLanes="2" to="147" /><edge from="147" id="147to84" numLanes="2" to="84" /><edge from="147" id="147to109" numLanes="2" to="109" /><edge from="109" id="109to147" numLanes="2" to="147" /><edge from="109" id="109to1" numLanes="2" to="1" /><edge from="1" id="1to109" numLanes="2" to="109" /><edge from="1" id="1to25" numLanes="2" to="25" /><edge from="25" id="25to1" numLanes="2" to="1" /><edge from="25" id="25to177" numLanes="2" to="177" /><edge from="177" id="177to25" numLanes="2" to="25" /><edge from="177" id="177to77" numLanes="2" to="77" /><edge from="77" id="77to177" numLanes="2" to="177" /><edge from="77" id="77to142" numLanes="2" to="142" /><edge from="142" id="142to77" numLanes="2" to="77" /><edge from="142" id="142to60" numLanes="2" to="60" /><edge from="60" id="60to142" numLanes="2" to="142" /><edge from="60" id="60to178" numLanes="2" to="178" /><edge from="178" id="178to60" numLanes="2" to="60" /><edge from="178" id="178to15" numLanes="2" to="15" /><edge from="15" id="15to178" numLanes="2" to="178" /><edge from="78" id="78to179" numLanes="2" to="179" /><edge from="179" id="179to78" numLanes="2" to="78" /><edge from="179" id="179to15" numLanes="2" to="15" /><edge from="15" id="15to179" numLanes="2" to="179" /><edge from="97" id="97to57" numLanes="2" to="57" /><edge from="57" id="57to97" numLanes="2" to="97" /><edge from="41" id="41to97" numLanes="2" to="97" /><edge from="97" id="97to41" numLanes="2" to="41" /><edge from="95" id="95to180" numLanes="2" to="180" /><edge from="180" id="180to95" numLanes="2" to="95" /><edge from="180" id="180to41" numLanes="2" to="41" /><edge from="41" id="41to180" numLanes="2" to="180" /><edge from="123" id="123to181" numLanes="2" to="181" /><edge from="181" id="181to123" numLanes="2" to="123" /><edge from="181" id="181to182" numLanes="2" to="182" /><edge from="182" id="182to181" numLanes="2" to="181" /><edge from="182" id="182to95" numLanes="2" to="95" /><edge from="95" id="95to182" numLanes="2" to="182" /><edge from="45" id="45to19" numLanes="2" to="19" /><edge from="19" id="19to45" numLanes="2" to="45" /><edge from="19" id="19to183" numLanes="2" to="183" /><edge from="183" id="183to19" numLanes="2" to="19" /><edge from="183" id="183to74" numLanes="2" to="74" /><edge from="74" id="74to183" numLanes="2" to="183" /><edge from="74" id="74to52" numLanes="2" to="52" /><edge from="52" id="52to74" numLanes="2" to="74" /><edge from="52" id="52to184" numLanes="2" to="184" /><edge from="184" id="184to52" numLanes="2" to="52" /><edge from="184" id="184to102" numLanes="2" to="102" /><edge from="102" id="102to184" numLanes="2" to="184" /><edge from="102" id="102to156" numLanes="2" to="156" /><edge from="156" id="156to102" numLanes="2" to="102" /><edge from="156" id="156to131" numLanes="2" to="131" /><edge from="131" id="131to156" numLanes="2" to="156" /><edge from="131" id="131to51" numLanes="2" to="51" /><edge from="51" id="51to131" numLanes="2" to="131" /><edge from="51" id="51to49" numLanes="2" to="49" /><edge from="49" id="49to51" numLanes="2" to="51" /><edge from="49" id="49to185" numLanes="2" to="185" /><edge from="185" id="185to49" numLanes="2" to="49" /><edge from="185" id="185to7" numLanes="2" to="7" /><edge from="7" id="7to185" numLanes="2" to="185" /><edge from="136" id="136to44" numLanes="2" to="44" /><edge from="44" id="44to136" numLanes="2" to="136" /><edge from="42" id="42to136" numLanes="2" to="136" /><edge from="136" id="136to42" numLanes="2" to="42" /><edge from="132" id="132to42" numLanes="2" to="42" /><edge from="42" id="42to132" numLanes="2" to="132" /><edge from="129" id="129to132" numLanes="2" to="132" /><edge from="132" id="132to129" numLanes="2" to="129" /><edge from="57" id="57to129" numLanes="2" to="129" /><edge from="129" id="129to57" numLanes="2" to="57" /><edge from="112" id="112to105" numLanes="2" to="105" /><edge from="105" id="105to112" numLanes="2" to="112" /><edge from="105" id="105to4" numLanes="2" to="4" /><edge from="4" id="4to105" numLanes="2" to="105" /><edge from="4" id="4to146" numLanes="2" to="146" /><edge from="146" id="146to4" numLanes="2" to="4" /><edge from="146" id="146to56" numLanes="2" to="56" /><edge from="56" id="56to146" numLanes="2" to="146" /><edge from="148" id="148to80" numLanes="2" to="80" /><edge from="80" id="80to148" numLanes="2" to="148" /><edge from="80" id="80to121" numLanes="2" to="121" /><edge from="121" id="121to80" numLanes="2" to="80" /><edge from="121" id="121to115" numLanes="2" to="115" /><edge from="115" id="115to121" numLanes="2" to="121" /><edge from="115" id="115to98" numLanes="2" to="98" /><edge from="98" id="98to115" numLanes="2" to="115" /><edge from="12" id="12to0" numLanes="2" to="0" /><edge from="0" id="0to12" numLanes="2" to="12" /><edge from="140" id="140to0" numLanes="2" to="0" /><edge from="0" id="0to140" numLanes="2" to="140" /><edge from="26" id="26to140" numLanes="2" to="140" /><edge from="140" id="140to26" numLanes="2" to="26" /><edge from="106" id="106to186" numLanes="2" to="186" /><edge from="186" id="186to106" numLanes="2" to="106" /><edge from="186" id="186to26" numLanes="2" to="26" /><edge from="26" id="26to186" numLanes="2" to="186" /><edge from="138" id="138to157" numLanes="2" to="157" /><edge from="157" id="157to138" numLanes="2" to="138" /><edge from="139" id="139to187" numLanes="2" to="187" /><edge from="187" id="187to139" numLanes="2" to="139" /><edge from="187" id="187to138" numLanes="2" to="138" /><edge from="138" id="138to187" numLanes="2" to="187" /><edge from="90" id="90to188" numLanes="2" to="188" /><edge from="188" id="188to90" numLanes="2" to="90" /><edge from="188" id="188to88" numLanes="2" to="88" /><edge from="88" id="88to188" numLanes="2" to="188" /><edge from="88" id="88to134" numLanes="2" to="134" /><edge from="134" id="134to88" numLanes="2" to="88" /><edge from="28" id="28to189" numLanes="2" to="189" /><edge from="189" id="189to28" numLanes="2" to="28" /><edge from="189" id="189to152" numLanes="2" to="152" /><edge from="152" id="152to189" numLanes="2" to="189" /><edge from="142" id="142to28" numLanes="2" to="28" /><edge from="28" id="28to142" numLanes="2" to="142" /><edge from="52" id="52to190" numLanes="2" to="190" /><edge from="190" id="190to52" numLanes="2" to="52" /><edge from="190" id="190to142" numLanes="2" to="142" /><edge from="142" id="142to190" numLanes="2" to="190" /><edge from="132" id="132to191" numLanes="2" to="191" /><edge from="191" id="191to132" numLanes="2" to="132" /><edge from="191" id="191to52" numLanes="2" to="52" /><edge from="52" id="52to191" numLanes="2" to="191" /><edge from="146" id="146to132" numLanes="2" to="132" /><edge from="132" id="132to146" numLanes="2" to="146" /><edge from="26" id="26to146" numLanes="2" to="146" /><edge from="146" id="146to26" numLanes="2" to="26" /><edge from="22" id="22to192" numLanes="2" to="192" /><edge from="192" id="192to22" numLanes="2" to="22" /><edge from="192" id="192to85" numLanes="2" to="85" /><edge from="85" id="85to192" numLanes="2" to="192" /><edge from="85" id="85to193" numLanes="2" to="193" /><edge from="193" id="193to85" numLanes="2" to="85" /><edge from="193" id="193to194" numLanes="2" to="194" /><edge from="194" id="194to193" numLanes="2" to="193" /><edge from="194" id="194to10" numLanes="2" to="10" /><edge from="10" id="10to194" numLanes="2" to="194" /><edge from="10" id="10to195" numLanes="2" to="195" /><edge from="195" id="195to10" numLanes="2" to="10" /><edge from="195" id="195to147" numLanes="2" to="147" /><edge from="147" id="147to195" numLanes="2" to="195" /><edge from="147" id="147to196" numLanes="2" to="196" /><edge from="196" id="196to147" numLanes="2" to="147" /><edge from="196" id="196to49" numLanes="2" to="49" /><edge from="49" id="49to196" numLanes="2" to="196" /><edge from="49" id="49to197" numLanes="2" to="197" /><edge from="197" id="197to49" numLanes="2" to="49" /><edge from="197" id="197to95" numLanes="2" to="95" /><edge from="95" id="95to197" numLanes="2" to="197" /><edge from="95" id="95to115" numLanes="2" to="115" /><edge from="115" id="115to95" numLanes="2" to="95" /><edge from="115" id="115to198" numLanes="2" to="198" /><edge from="198" id="198to115" numLanes="2" to="115" /><edge from="198" id="198to138" numLanes="2" to="138" /><edge from="138" id="138to198" numLanes="2" to="198" /><edge from="140" id="140to141" numLanes="2" to="141" /><edge from="141" id="141to140" numLanes="2" to="140" /><edge from="4" id="4to140" numLanes="2" to="140" /><edge from="140" id="140to4" numLanes="2" to="4" /><edge from="154" id="154to60" numLanes="2" to="60" /><edge from="60" id="60to154" numLanes="2" to="154" /><edge from="3" id="3to154" numLanes="2" to="154" /><edge from="154" id="154to3" numLanes="2" to="3" /><edge from="61" id="61to46" numLanes="2" to="46" /><edge from="46" id="46to61" numLanes="2" to="61" /><edge from="46" id="46to77" numLanes="2" to="77" /><edge from="77" id="77to46" numLanes="2" to="46" /><edge from="56" id="56to106" numLanes="2" to="106" /><edge from="106" id="106to56" numLanes="2" to="56" /><edge from="106" id="106to134" numLanes="2" to="134" /><edge from="134" id="134to106" numLanes="2" to="106" /><edge from="157" id="157to40" numLanes="2" to="40" /><edge from="40" id="40to157" numLanes="2" to="157" /><edge from="121" id="121to157" numLanes="2" to="157" /><edge from="157" id="157to121" numLanes="2" to="121" /><edge from="41" id="41to121" numLanes="2" to="121" /><edge from="121" id="121to41" numLanes="2" to="41" /><edge from="51" id="51to41" numLanes="2" to="41" /><edge from="41" id="41to51" numLanes="2" to="51" /><edge from="109" id="109to51" numLanes="2" to="51" /><edge from="51" id="51to109" numLanes="2" to="109" /><edge from="23" id="23to109" numLanes="2" to="109" /><edge from="109" id="109to23" numLanes="2" to="23" /><edge from="130" id="130to23" numLanes="2" to="23" /><edge from="23" id="23to130" numLanes="2" to="130" /><edge from="144" id="144to84" numLanes="2" to="84" /><edge from="84" id="84to144" numLanes="2" to="144" /><edge from="110" id="110to199" numLanes="2" to="199" /><edge from="199" id="199to110" numLanes="2" to="110" /><edge from="199" id="199to200" numLanes="2" to="200" /><edge from="200" id="200to199" numLanes="2" to="199" /><edge from="200" id="200to88" numLanes="2" to="88" /><edge from="88" id="88to200" numLanes="2" to="200" /><edge from="7" id="7to33" numLanes="2" to="33" /><edge from="33" id="33to7" numLanes="2" to="7" /><edge from="33" id="33to150" numLanes="2" to="150" /><edge from="150" id="150to33" numLanes="2" to="33" /><edge from="89" id="89to201" numLanes="2" to="201" /><edge from="201" id="201to89" numLanes="2" to="89" /><edge from="201" id="201to202" numLanes="2" to="202" /><edge from="202" id="202to201" numLanes="2" to="201" /><edge from="202" id="202to203" numLanes="2" to="203" /><edge from="203" id="203to202" numLanes="2" to="202" /><edge from="203" id="203to204" numLanes="2" to="204" /><edge from="204" id="204to203" numLanes="2" to="203" /><edge from="204" id="204to150" numLanes="2" to="150" /><edge from="150" id="150to204" numLanes="2" to="204" /><edge from="71" id="71to50" numLanes="2" to="50" /><edge from="50" id="50to71" numLanes="2" to="71" /><edge from="40" id="40to127" numLanes="2" to="127" /><edge from="127" id="127to40" numLanes="2" to="40" /><edge from="48" id="48to117" numLanes="2" to="117" /><edge from="117" id="117to48" numLanes="2" to="48" /><edge from="149" id="149to205" numLanes="2" to="205" /><edge from="205" id="205to149" numLanes="2" to="149" /><edge from="205" id="205to66" numLanes="2" to="66" /><edge from="66" id="66to205" numLanes="2" to="205" /><edge from="76" id="76to31" numLanes="2" to="31" /><edge from="31" id="31to76" numLanes="2" to="76" /><edge from="76" id="76to133" numLanes="2" to="133" /><edge from="133" id="133to76" numLanes="2" to="76" /><edge from="75" id="75to206" numLanes="2" to="206" /><edge from="206" id="206to75" numLanes="2" to="75" /><edge from="206" id="206to207" numLanes="2" to="207" /><edge from="207" id="207to206" numLanes="2" to="206" /><edge from="207" id="207to208" numLanes="2" to="208" /><edge from="208" id="208to207" numLanes="2" to="207" /><edge from="208" id="208to209" numLanes="2" to="209" /><edge from="209" id="209to208" numLanes="2" to="208" /><edge from="209" id="209to210" numLanes="2" to="210" /><edge from="210" id="210to209" numLanes="2" to="209" /><edge from="210" id="210to211" numLanes="2" to="211" /><edge from="211" id="211to210" numLanes="2" to="210" /><edge from="211" id="211to212" numLanes="2" to="212" /><edge from="212" id="212to211" numLanes="2" to="211" /><edge from="212" id="212to213" numLanes="2" to="213" /><edge from="213" id="213to212" numLanes="2" to="212" /><edge from="213" id="213to143" numLanes="2" to="143" /><edge from="143" id="143to213" numLanes="2" to="213" /><edge from="135" id="135to20" numLanes="2" to="20" /><edge from="20" id="20to135" numLanes="2" to="135" /><edge from="20" id="20to72" numLanes="2" to="72" /><edge from="72" id="72to20" numLanes="2" to="20" /><edge from="48" id="48to59" numLanes="2" to="59" /><edge from="59" id="59to48" numLanes="2" to="48" /><edge from="127" id="127to214" numLanes="2" to="214" /><edge from="214" id="214to127" numLanes="2" to="127" /><edge from="214" id="214to215" numLanes="2" to="215" /><edge from="215" id="215to214" numLanes="2" to="214" /><edge from="215" id="215to216" numLanes="2" to="216" /><edge from="216" id="216to215" numLanes="2" to="215" /><edge from="216" id="216to217" numLanes="2" to="217" /><edge from="217" id="217to216" numLanes="2" to="216" /><edge from="217" id="217to218" numLanes="2" to="218" /><edge from="218" id="218to217" numLanes="2" to="217" /><edge from="218" id="218to219" numLanes="2" to="219" /><edge from="219" id="219to218" numLanes="2" to="218" /><edge from="219" id="219to220" numLanes="2" to="220" /><edge from="220" id="220to219" numLanes="2" to="219" /><edge from="220" id="220to221" numLanes="2" to="221" /><edge from="221" id="221to220" numLanes="2" to="220" /><edge from="221" id="221to222" numLanes="2" to="222" /><edge from="222" id="222to221" numLanes="2" to="221" /><edge from="222" id="222to223" numLanes="2" to="223" /><edge from="223" id="223to222" numLanes="2" to="222" /><edge from="223" id="223to224" numLanes="2" to="224" /><edge from="224" id="224to223" numLanes="2" to="223" /><edge from="224" id="224to225" numLanes="2" to="225" /><edge from="225" id="225to224" numLanes="2" to="224" /><edge from="225" id="225to226" numLanes="2" to="226" /><edge from="226" id="226to225" numLanes="2" to="225" /><edge from="226" id="226to227" numLanes="2" to="227" /><edge from="227" id="227to226" numLanes="2" to="226" /><edge from="227" id="227to228" numLanes="2" to="228" /><edge from="228" id="228to227" numLanes="2" to="227" /><edge from="228" id="228to229" numLanes="2" to="229" /><edge from="229" id="229to228" numLanes="2" to="228" /><edge from="229" id="229to230" numLanes="2" to="230" /><edge from="230" id="230to229" numLanes="2" to="229" /><edge from="230" id="230to143" numLanes="2" to="143" /><edge from="143" id="143to230" numLanes="2" to="230" /><edge from="124" id="124to231" numLanes="2" to="231" /><edge from="231" id="231to124" numLanes="2" to="124" /><edge from="231" id="231to232" numLanes="2" to="232" /><edge from="232" id="232to231" numLanes="2" to="231" /><edge from="232" id="232to233" numLanes="2" to="233" /><edge from="233" id="233to232" numLanes="2" to="232" /><edge from="233" id="233to234" numLanes="2" to="234" /><edge from="234" id="234to233" numLanes="2" to="233" /><edge from="234" id="234to235" numLanes="2" to="235" /><edge from="235" id="235to234" numLanes="2" to="234" /><edge from="235" id="235to236" numLanes="2" to="236" /><edge from="236" id="236to235" numLanes="2" to="235" /><edge from="236" id="236to237" numLanes="2" to="237" /><edge from="237" id="237to236" numLanes="2" to="236" /><edge from="237" id="237to238" numLanes="2" to="238" /><edge from="238" id="238to237" numLanes="2" to="237" /><edge from="238" id="238to128" numLanes="2" to="128" /><edge from="128" id="128to238" numLanes="2" to="238" /><edge from="64" id="64to239" numLanes="2" to="239" /><edge from="239" id="239to64" numLanes="2" to="64" /><edge from="239" id="239to240" numLanes="2" to="240" /><edge from="240" id="240to239" numLanes="2" to="239" /><edge from="240" id="240to241" numLanes="2" to="241" /><edge from="241" id="241to240" numLanes="2" to="240" /><edge from="241" id="241to242" numLanes="2" to="242" /><edge from="242" id="242to241" numLanes="2" to="241" /><edge from="242" id="242to243" numLanes="2" to="243" /><edge from="243" id="243to242" numLanes="2" to="242" /><edge from="243" id="243to244" numLanes="2" to="244" /><edge from="244" id="244to243" numLanes="2" to="243" /><edge from="244" id="244to245" numLanes="2" to="245" /><edge from="245" id="245to244" numLanes="2" to="244" /><edge from="245" id="245to246" numLanes="2" to="246" /><edge from="246" id="246to245" numLanes="2" to="245" /><edge from="246" id="246to247" numLanes="2" to="247" /><edge from="247" id="247to246" numLanes="2" to="246" /><edge from="247" id="247to248" numLanes="2" to="248" /><edge from="248" id="248to247" numLanes="2" to="247" /><edge from="248" id="248to249" numLanes="2" to="249" /><edge from="249" id="249to248" numLanes="2" to="248" /><edge from="249" id="249to250" numLanes="2" to="250" /><edge from="250" id="250to249" numLanes="2" to="249" /><edge from="250" id="250to251" numLanes="2" to="251" /><edge from="251" id="251to250" numLanes="2" to="250" /><edge from="251" id="251to252" numLanes="2" to="252" /><edge from="252" id="252to251" numLanes="2" to="251" /><edge from="252" id="252to253" numLanes="2" to="253" /><edge from="253" id="253to252" numLanes="2" to="252" /><edge from="253" id="253to254" numLanes="2" to="254" /><edge from="254" id="254to253" numLanes="2" to="253" /><edge from="254" id="254to255" numLanes="2" to="255" /><edge from="255" id="255to254" numLanes="2" to="254" /><edge from="255" id="255to256" numLanes="2" to="256" /><edge from="256" id="256to255" numLanes="2" to="255" /><edge from="256" id="256to257" numLanes="2" to="257" /><edge from="257" id="257to256" numLanes="2" to="256" /><edge from="257" id="257to258" numLanes="2" to="258" /><edge from="258" id="258to257" numLanes="2" to="257" /><edge from="258" id="258to36" numLanes="2" to="36" /><edge from="36" id="36to258" numLanes="2" to="258" /><edge from="93" id="93to259" numLanes="2" to="259" /><edge from="259" id="259to93" numLanes="2" to="93" /><edge from="259" id="259to260" numLanes="2" to="260" /><edge from="260" id="260to259" numLanes="2" to="259" /><edge from="260" id="260to261" numLanes="2" to="261" /><edge from="261" id="261to260" numLanes="2" to="260" /><edge from="261" id="261to262" numLanes="2" to="262" /><edge from="262" id="262to261" numLanes="2" to="261" /><edge from="262" id="262to263" numLanes="2" to="263" /><edge from="263" id="263to262" numLanes="2" to="262" /><edge from="263" id="263to264" numLanes="2" to="264" /><edge from="264" id="264to263" numLanes="2" to="263" /><edge from="264" id="264to265" numLanes="2" to="265" /><edge from="265" id="265to264" numLanes="2" to="264" /><edge from="265" id="265to266" numLanes="2" to="266" /><edge from="266" id="266to265" numLanes="2" to="265" /><edge from="266" id="266to267" numLanes="2" to="267" /><edge from="267" id="267to266" numLanes="2" to="266" /><edge from="267" id="267to113" numLanes="2" to="113" /><edge from="113" id="113to267" numLanes="2" to="267" /><edge from="113" id="113to268" numLanes="2" to="268" /><edge from="268" id="268to113" numLanes="2" to="113" /><edge from="268" id="268to269" numLanes="2" to="269" /><edge from="269" id="269to268" numLanes="2" to="268" /><edge from="269" id="269to270" numLanes="2" to="270" /><edge from="270" id="270to269" numLanes="2" to="269" /><edge from="270" id="270to271" numLanes="2" to="271" /><edge from="271" id="271to270" numLanes="2" to="270" /><edge from="271" id="271to272" numLanes="2" to="272" /><edge from="272" id="272to271" numLanes="2" to="271" /><edge from="272" id="272to273" numLanes="2" to="273" /><edge from="273" id="273to272" numLanes="2" to="272" /><edge from="273" id="273to274" numLanes="2" to="274" /><edge from="274" id="274to273" numLanes="2" to="273" /><edge from="274" id="274to275" numLanes="2" to="275" /><edge from="275" id="275to274" numLanes="2" to="274" /><edge from="275" id="275to276" numLanes="2" to="276" /><edge from="276" id="276to275" numLanes="2" to="275" /><edge from="276" id="276to277" numLanes="2" to="277" /><edge from="277" id="277to276" numLanes="2" to="276" /><edge from="277" id="277to34" numLanes="2" to="34" /><edge from="34" id="34to277" numLanes="2" to="277" /><edge from="64" id="64to278" numLanes="2" to="278" /><edge from="278" id="278to64" numLanes="2" to="64" /><edge from="278" id="278to279" numLanes="2" to="279" /><edge from="279" id="279to278" numLanes="2" to="278" /><edge from="279" id="279to280" numLanes="2" to="280" /><edge from="280" id="280to279" numLanes="2" to="279" /><edge from="280" id="280to281" numLanes="2" to="281" /><edge from="281" id="281to280" numLanes="2" to="280" /><edge from="281" id="281to282" numLanes="2" to="282" /><edge from="282" id="282to281" numLanes="2" to="281" /><edge from="282" id="282to283" numLanes="2" to="283" /><edge from="283" id="283to282" numLanes="2" to="282" /><edge from="283" id="283to284" numLanes="2" to="284" /><edge from="284" id="284to283" numLanes="2" to="283" /><edge from="284" id="284to285" numLanes="2" to="285" /><edge from="285" id="285to284" numLanes="2" to="284" /><edge from="285" id="285to286" numLanes="2" to="286" /><edge from="286" id="286to285" numLanes="2" to="285" /><edge from="286" id="286to287" numLanes="2" to="287" /><edge from="287" id="287to286" numLanes="2" to="286" /><edge from="287" id="287to288" numLanes="2" to="288" /><edge from="288" id="288to287" numLanes="2" to="287" /><edge from="288" id="288to289" numLanes="2" to="289" /><edge from="289" id="289to288" numLanes="2" to="288" /><edge from="289" id="289to35" numLanes="2" to="35" /><edge from="35" id="35to289" numLanes="2" to="289" /><edge from="35" id="35to290" numLanes="2" to="290" /><edge from="290" id="290to35" numLanes="2" to="35" /><edge from="290" id="290to291" numLanes="2" to="291" /><edge from="291" id="291to290" numLanes="2" to="290" /><edge from="291" id="291to292" numLanes="2" to="292" /><edge from="292" id="292to291" numLanes="2" to="291" /><edge from="292" id="292to50" numLanes="2" to="50" /><edge from="50" id="50to292" numLanes="2" to="292" /><edge from="66" id="66to293" numLanes="2" to="293" /><edge from="293" id="293to66" numLanes="2" to="66" /><edge from="293" id="293to294" numLanes="2" to="294" /><edge from="294" id="294to293" numLanes="2" to="293" /><edge from="294" id="294to295" numLanes="2" to="295" /><edge from="295" id="295to294" numLanes="2" to="294" /><edge from="295" id="295to296" numLanes="2" to="296" /><edge from="296" id="296to295" numLanes="2" to="295" /><edge from="296" id="296to297" numLanes="2" to="297" /><edge from="297" id="297to296" numLanes="2" to="296" /><edge from="297" id="297to298" numLanes="2" to="298" /><edge from="298" id="298to297" numLanes="2" to="297" /><edge from="298" id="298to299" numLanes="2" to="299" /><edge from="299" id="299to298" numLanes="2" to="298" /><edge from="299" id="299to82" numLanes="2" to="82" /><edge from="82" id="82to299" numLanes="2" to="299" /><edge from="82" id="82to300" numLanes="2" to="300" /><edge from="300" id="300to82" numLanes="2" to="82" /><edge from="300" id="300to301" numLanes="2" to="301" /><edge from="301" id="301to300" numLanes="2" to="300" /><edge from="301" id="301to96" numLanes="2" to="96" /><edge from="96" id="96to301" numLanes="2" to="301" /><edge from="69" id="69to55" numLanes="2" to="55" /><edge from="55" id="55to69" numLanes="2" to="69" /><edge from="60" id="60to74" numLanes="2" to="74" /><edge from="74" id="74to60" numLanes="2" to="60" /><edge from="74" id="74to42" numLanes="2" to="42" /><edge from="42" id="42to74" numLanes="2" to="74" /><edge from="42" id="42to4" numLanes="2" to="4" /><edge from="4" id="4to42" numLanes="2" to="42" /><edge from="77" id="77to102" numLanes="2" to="102" /><edge from="102" id="102to77" numLanes="2" to="77" /><edge from="102" id="102to129" numLanes="2" to="129" /><edge from="129" id="129to102" numLanes="2" to="102" /><edge from="129" id="129to56" numLanes="2" to="56" /><edge from="56" id="56to129" numLanes="2" to="129" /><edge from="53" id="53to79" numLanes="2" to="79" /><edge from="79" id="79to53" numLanes="2" to="53" /><edge from="84" id="84to7" numLanes="2" to="7" /><edge from="7" id="7to84" numLanes="2" to="84" /><edge from="7" id="7to123" numLanes="2" to="123" /><edge from="123" id="123to7" numLanes="2" to="7" /><edge from="123" id="123to98" numLanes="2" to="98" /><edge from="98" id="98to123" numLanes="2" to="123" /><edge from="98" id="98to139" numLanes="2" to="139" /><edge from="139" id="139to98" numLanes="2" to="98" /><edge from="122" id="122to130" numLanes="2" to="130" /><edge from="130" id="130to122" numLanes="2" to="122" /