<?xml version="1.0" encoding="UTF-8"?>

<!-- generated on Fri Mar 16 01:18:57 2018 by SUMO netconvert Version 0.32.0
<?xml version="1.0" encoding="UTF-8"?>

<configuration xmlns:xsi="http://www.w3.org/2001/XMLSchema-instance" xsi:noNamespaceSchemaLocation="http://sumo.dlr.de/xsd/netconvertConfiguration.xsd">

    <input>
        <node-files value="../sumo_files/traffic_ml_meters.nod.xml"/>
        <edge-files value="../sumo_files/traffic_ml_meters.edg.xml"/>
    </input>

    <output>
        <output-file value="../sumo_files/traffic_ml_meters.net.xml"/>
    </output>

</configuration>
-->

<net version="0.27" xmlns:xsi="http://www.w3.org/2001/XMLSchema-instance" xsi:noNamespaceSchemaLocation="http://sumo.dlr.de/xsd/net_file.xsd">

    <location netOffset="-13.61,527.19" convBoundary="0.00,0.00,2310.83,1077.70" origBoundary="13.61,-527.19,2324.44,550.52" projParameter="!"/>

    <edge id=":0_0" function="internal">
        <lane id=":0_0_0" index="0" speed="13.90" length="9.15" shape="337.62,520.05 335.19,519.74 333.11,520.21 331.39,521.46 330.02,523.49"/>
    </edge>
    <edge id=":0_1" function="internal">
        <lane id=":0_1_0" index="0" speed="13.90" length="18.92" shape="337.62,520.05 319.34,515.11"/>
        <lane id=":0_1_1" index="1" speed="13.90" length="18.92" shape="338.47,516.87 320.21,511.93"/>
    </edge>
    <edge id=":0_3" function="internal">
        <lane id=":0_3_0" index="0" speed="13.90" length="6.74" shape="338.47,516.87 333.95,514.92 332.75,513.56"/>
    </edge>
    <edge id=":0_4" function="internal">
        <lane id=":0_4_0" index="0" speed="13.90" length="2.41" shape="338.47,516.87 337.49,515.75 337.31,514.84"/>
    </edge>
    <edge id=":0_20" function="internal">
        <lane id=":0_20_0" index="0" speed="13.90" length="10.72" shape="332.75,513.56 331.43,512.06 330.94,508.29 332.45,503.60"/>
    </edge>
    <edge id=":0_21" function="internal">
        <lane id=":0_21_0" index="0" speed="13.90" length="2.41" shape="337.31,514.84 337.92,514.16 339.33,513.68"/>
    </edge>
    <edge id=":0_5" function="internal">
        <lane id=":0_5_0" index="0" speed="13.90" length="5.25" shape="338.38,506.51 337.92,507.92 338.07,509.05 338.83,509.91 340.19,510.49"/>
    </edge>
    <edge id=":0_6" function="internal">
        <lane id=":0_6_0" index="0" speed="13.90" length="18.92" shape="338.38,506.51 330.02,523.49"/>
        <lane id=":0_6_1" index="1" speed="13.90" length="18.92" shape="335.41,505.05 327.06,522.03"/>
    </edge>
    <edge id=":0_8" function="internal">
        <lane id=":0_8_0" index="0" speed="13.90" length="7.14" shape="335.41,505.05 332.68,509.13 330.87,510.44"/>
    </edge>
    <edge id=":0_9" function="internal">
        <lane id=":0_9_0" index="0" speed="13.90" length="2.41" shape="335.41,505.05 334.13,505.80 333.21,505.81"/>
    </edge>
    <edge id=":0_22" function="internal">
        <lane id=":0_22_0" index="0" speed="13.90" length="11.19" shape="330.87,510.44 329.23,511.63 325.08,512.56 320.21,511.93"/>
    </edge>
    <edge id=":0_23" function="internal">
        <lane id=":0_23_0" index="0" speed="13.90" length="2.41" shape="333.21,505.81 332.65,505.08 332.45,503.60"/>
    </edge>
    <edge id=":0_10" function="internal">
        <lane id=":0_10_0" index="0" speed="13.90" length="9.10" shape="321.94,505.56 324.36,505.88 326.42,505.41 328.13,504.17 329.49,502.15"/>
    </edge>
    <edge id=":0_11" function="internal">
        <lane id=":0_11_0" index="0" speed="13.90" length="18.90" shape="321.94,505.56 340.19,510.49"/>
        <lane id=":0_11_1" index="1" speed="13.90" length="18.90" shape="321.08,508.74 339.33,513.68"/>
    </edge>
    <edge id=":0_13" function="internal">
        <lane id=":0_13_0" index="0" speed="13.90" length="6.71" shape="321.08,508.74 325.60,510.70 326.77,512.04"/>
    </edge>
    <edge id=":0_14" function="internal">
        <lane id=":0_14_0" index="0" speed="13.90" length="2.41" shape="321.08,508.74 322.05,509.86 322.24,510.77"/>
    </edge>
    <edge id=":0_24" function="internal">
        <lane id=":0_24_0" index="0" speed="13.90" length="10.76" shape="326.77,512.04 328.10,513.57 328.59,517.34 327.06,522.03"/>
    </edge>
    <edge id=":0_25" function="internal">
        <lane id=":0_25_0" index="0" speed="13.90" length="2.41" shape="322.24,510.77 321.62,511.46 320.21,511.93"/>
    </edge>
    <edge id=":0_15" function="internal">
        <lane id=":0_15_0" index="0" speed="13.90" length="5.25" shape="321.14,519.10 321.60,517.70 321.46,516.56 320.70,515.70 319.34,515.11"/>
    </edge>
    <edge id=":0_16" function="internal">
        <lane id=":0_16_0" index="0" speed="13.90" length="18.90" shape="321.14,519.10 329.49,502.15"/>
        <lane id=":0_16_1" index="1" speed="13.90" length="18.90" shape="324.10,520.57 332.45,503.60"/>
    </edge>
    <edge id=":0_18" function="internal">
        <lane id=":0_18_0" index="0" speed="13.90" length="7.11" shape="324.10,520.57 326.85,516.50 328.63,515.21"/>
    </edge>
    <edge id=":0_19" function="internal">
        <lane id=":0_19_0" index="0" speed="13.90" length="2.41" shape="324.10,520.57 325.39,519.82 326.31,519.82"/>
    </edge>
    <edge id=":0_26" function="internal">
        <lane id=":0_26_0" index="0" speed="13.90" length="11.23" shape="328.63,515.21 330.30,514.00 334.46,513.06 339.33,513.68"/>
    </edge>
    <edge id=":0_27" function="internal">
        <lane id=":0_27_0" index="0" speed="13.90" length="2.41" shape="326.31,519.82 326.87,520.55 327.06,522.03"/>
    </edge>
    <edge id=":1_0" function="internal">
        <lane id=":1_0_0" index="0" speed="13.90" length="9.63" shape="1321.65,540.13 1319.08,539.79 1316.88,540.25 1315.04,541.53 1313.57,543.61"/>
    </edge>
    <edge id=":1_1" function="internal">
        <lane id=":1_1_0" index="0" speed="13.90" length="19.32" shape="1321.65,540.13 1303.01,535.06"/>
        <lane id=":1_1_1" index="1" speed="13.90" length="19.32" shape="1322.52,536.95 1303.87,531.88"/>
    </edge>
    <edge id=":1_3" function="internal">
        <lane id=":1_3_0" index="0" speed="13.90" length="6.79" shape="1322.52,536.95 1317.89,534.94 1316.75,533.62"/>
    </edge>
    <edge id=":1_4" function="internal">
        <lane id=":1_4_0" index="0" speed="13.90" length="2.41" shape="1322.52,536.95 1321.54,535.83 1321.36,534.92"/>
    </edge>
    <edge id=":1_20" function="internal">
        <lane id=":1_20_0" index="0" speed="13.90" length="10.99" shape="1316.75,533.62 1315.38,532.03 1314.98,528.20 1316.70,523.46"/>
    </edge>
    <edge id=":1_21" function="internal">
        <lane id=":1_21_0" index="0" speed="13.90" length="2.41" shape="1321.36,534.92 1321.97,534.23 1323.39,533.76"/>
    </edge>
    <edge id=":1_5" function="internal">
        <lane id=":1_5_0" index="0" speed="13.90" length="5.29" shape="1322.52,526.57 1322.01,527.98 1322.13,529.12 1322.88,529.98 1324.25,530.58"/>
    </edge>
    <edge id=":1_6" function="internal">
        <lane id=":1_6_0" index="0" speed="13.90" length="19.28" shape="1322.52,526.57 1313.57,543.61"/>
        <lane id=":1_6_1" index="1" speed="13.90" length="19.28" shape="1319.61,525.01 1310.64,542.10"/>
    </edge>
    <edge id=":1_8" function="internal">
        <lane id=":1_8_0" index="0" speed="13.90" length="7.19" shape="1319.61,525.01 1316.68,529.09 1314.90,530.33"/>
    </edge>
    <edge id=":1_9" function="internal">
        <lane id=":1_9_0" index="0" speed="13.90" length="2.41" shape="1319.61,525.01 1318.30,525.71 1317.38,525.69"/>
    </edge>
    <edge id=":1_22" function="internal">
        <lane id=":1_22_0" index="0" speed="13.90" length="11.56" shape="1314.90,530.33 1313.08,531.59 1308.81,532.52 1303.87,531.88"/>
    </edge>
    <edge id=":1_23" function="internal">
        <lane id=":1_23_0" index="0" speed="13.90" length="2.41" shape="1317.38,525.69 1316.85,524.94 1316.70,523.46"/>
    </edge>
    <edge id=":1_10" function="internal">
        <lane id=":1_10_0" index="0" speed="13.90" length="9.77" shape="1305.60,525.51 1308.16,525.84 1310.38,525.35 1312.26,524.04 1313.79,521.90"/>
    </edge>
    <edge id=":1_11" function="internal">
        <lane id=":1_11_0" index="0" speed="13.90" length="19.33" shape="1305.60,525.51 1324.25,530.58"/>
        <lane id=":1_11_1" index="1" speed="13.90" length="19.33" shape="1304.74,528.69 1323.39,533.76"/>
    </edge>
    <edge id=":1_13" function="internal">
        <lane id=":1_13_0" index="0" speed="13.90" length="6.78" shape="1304.74,528.69 1309.32,530.67 1310.49,532.02"/>
    </edge>
    <edge id=":1_14" function="internal">
        <lane id=":1_14_0" index="0" speed="13.90" length="2.41" shape="1304.74,528.69 1305.72,529.81 1305.90,530.72"/>
    </edge>
    <edge id=":1_24" function="internal">
        <lane id=":1_24_0" index="0" speed="13.90" length="10.88" shape="1310.49,532.02 1311.84,533.57 1312.27,537.38 1310.64,542.10"/>
    </edge>
    <edge id=":1_25" function="internal">
        <lane id=":1_25_0" index="0" speed="13.90" length="2.41" shape="1305.90,530.72 1305.28,531.41 1303.87,531.88"/>
    </edge>
    <edge id=":1_15" function="internal">
        <lane id=":1_15_0" index="0" speed="13.90" length="5.27" shape="1304.77,539.07 1305.26,537.66 1305.13,536.52 1304.38,535.65 1303.01,535.06"/>
    </edge>
    <edge id=":1_16" function="internal">
        <lane id=":1_16_0" index="0" speed="13.90" length="19.37" shape="1304.77,539.07 1313.79,521.90"/>
        <lane id=":1_16_1" index="1" speed="13.90" length="19.37" shape="1307.70,540.58 1316.70,523.46"/>
    </edge>
    <edge id=":1_18" function="internal">
        <lane id=":1_18_0" index="0" speed="13.90" length="7.28" shape="1307.70,540.58 1310.57,536.51 1312.46,535.19"/>
    </edge>
    <edge id=":1_19" function="internal">
        <lane id=":1_19_0" index="0" speed="13.90" length="2.41" shape="1307.70,540.58 1309.01,539.86 1309.93,539.87"/>
    </edge>
    <edge id=":1_26" function="internal">
        <lane id=":1_26_0" index="0" speed="13.90" length="11.44" shape="1312.46,535.19 1314.14,534.02 1318.41,533.10 1323.39,533.76"/>
    </edge>
    <edge id=":1_27" function="internal">
        <lane id=":1_27_0" index="0" speed="13.90" length="2.41" shape="1309.93,539.87 1310.47,540.62 1310.64,542.10"/>
    </edge>
    <edge id=":10_0" function="internal">
        <lane id=":10_0_0" index="0" speed="13.90" length="8.89" shape="1603.46,514.76 1601.07,514.45 1599.04,514.89 1597.38,516.10 1596.09,518.06"/>
    </edge>
    <edge id=":10_1" function="internal">
        <lane id=":10_1_0" index="0" speed="13.90" length="18.79" shape="1603.46,514.76 1585.32,509.84"/>
        <lane id=":10_1_1" index="1" speed="13.90" length="18.79" shape="1604.32,511.57 1586.18,506.66"/>
    </edge>
    <edge id=":10_3" function="internal">
        <lane id=":10_3_0" index="0" speed="13.90" length="6.75" shape="1604.32,511.57 1599.79,509.63 1598.58,508.26"/>
    </edge>
    <edge id=":10_4" function="internal">
        <lane id=":10_4_0" index="0" speed="13.90" length="2.41" shape="1604.32,511.57 1603.34,510.45 1603.15,509.55"/>
    </edge>
    <edge id=":10_20" function="internal">
        <lane id=":10_20_0" index="0" speed="13.90" length="10.72" shape="1598.58,508.26 1597.27,506.77 1596.78,502.99 1598.30,498.30"/>
    </edge>
    <edge id=":10_21" function="internal">
        <lane id=":10_21_0" index="0" speed="13.90" length="2.41" shape="1603.15,509.55 1603.77,508.86 1605.17,508.39"/>
    </edge>
    <edge id=":10_5" function="internal">
        <lane id=":10_5_0" index="0" speed="13.90" length="5.25" shape="1604.22,501.21 1603.77,502.62 1603.91,503.75 1604.67,504.61 1606.03,505.20"/>
    </edge>
    <edge id=":10_6" function="internal">
        <lane id=":10_6_0" index="0" speed="13.90" length="18.73" shape="1604.22,501.21 1596.09,518.06"/>
        <lane id=":10_6_1" index="1" speed="13.90" length="18.73" shape="1601.26,499.76 1593.11,516.65"/>
    </edge>
    <edge id=":10_8" function="internal">
        <lane id=":10_8_0" index="0" speed="13.90" length="7.06" shape="1601.26,499.76 1598.53,503.83 1596.79,505.10"/>
    </edge>
    <edge id=":10_9" function="internal">
        <lane id=":10_9_0" index="0" speed="13.90" length="2.41" shape="1601.26,499.76 1599.98,500.50 1599.05,500.51"/>
    </edge>
    <edge id=":10_22" function="internal">
        <lane id=":10_22_0" index="0" speed="13.90" length="11.16" shape="1596.79,505.10 1595.10,506.34 1590.99,507.28 1586.18,506.66"/>
    </edge>
    <edge id=":10_23" function="internal">
        <lane id=":10_23_0" index="0" speed="13.90" length="2.41" shape="1599.05,500.51 1598.49,499.78 1598.30,498.30"/>
    </edge>
    <edge id=":10_10" function="internal">
        <lane id=":10_10_0" index="0" speed="13.90" length="8.98" shape="1587.92,500.29 1590.28,500.59 1592.30,500.12 1593.99,498.87 1595.34,496.85"/>
    </edge>
    <edge id=":10_11" function="internal">
        <lane id=":10_11_0" index="0" speed="13.90" length="18.77" shape="1587.92,500.29 1606.03,505.20"/>
        <lane id=":10_11_1" index="1" speed="13.90" length="18.77" shape="1587.05,503.48 1605.17,508.39"/>
    </edge>
    <edge id=":10_13" function="internal">
        <lane id=":10_13_0" index="0" speed="13.90" length="6.66" shape="1587.05,503.48 1591.51,505.42 1592.70,506.77"/>
    </edge>
    <edge id=":10_14" function="internal">
        <lane id=":10_14_0" index="0" speed="13.90" length="2.41" shape="1587.05,503.48 1588.03,504.60 1588.21,505.50"/>
    </edge>
    <edge id=":10_24" function="internal">
        <lane id=":10_24_0" index="0" speed="13.90" length="10.63" shape="1592.70,506.77 1594.01,508.26 1594.54,512.00 1593.11,516.65"/>
    </edge>
    <edge id=":10_25" function="internal">
        <lane id=":10_25_0" index="0" speed="13.90" length="2.41" shape="1588.21,505.50 1587.60,506.19 1586.18,506.66"/>
    </edge>
    <edge id=":10_15" function="internal">
        <lane id=":10_15_0" index="0" speed="13.90" length="5.22" shape="1587.14,513.82 1587.58,512.42 1587.42,511.29 1586.66,510.43 1585.32,509.84"/>
    </edge>
    <edge id=":10_16" function="internal">
        <lane id=":10_16_0" index="0" speed="13.90" length="18.83" shape="1587.14,513.82 1595.34,496.85"/>
        <lane id=":10_16_1" index="1" speed="13.90" length="18.83" shape="1590.13,515.24 1598.30,498.30"/>
    </edge>
    <edge id=":10_18" function="internal">
        <lane id=":10_18_0" index="0" speed="13.90" length="7.12" shape="1590.13,515.24 1592.78,511.18 1594.62,509.83"/>
    </edge>
    <edge id=":10_19" function="internal">
        <lane id=":10_19_0" index="0" speed="13.90" length="2.41" shape="1590.13,515.24 1591.40,514.47 1592.32,514.45"/>
    </edge>
    <edge id=":10_26" function="internal">
        <lane id=":10_26_0" index="0" speed="13.90" length="11.07" shape="1594.62,509.83 1596.18,508.69 1600.31,507.76 1605.17,508.39"/>
    </edge>
    <edge id=":10_27" function="internal">
        <lane id=":10_27_0" index="0" speed="13.90" length="2.41" shape="1592.32,514.45 1592.89,515.18 1593.11,516.65"/>
    </edge>
    <edge id=":100_0" function="internal">
        <lane id=":100_0_0" index="0" speed="13.90" length="10.14" shape="2150.90,561.62 2148.06,561.20 2145.66,561.61 2143.72,562.84 2142.24,564.89"/>
    </edge>
    <edge id=":100_1" function="internal">
        <lane id=":100_1_0" index="0" speed="13.90" length="19.85" shape="2150.90,561.62 2131.64,556.41"/>
        <lane id=":100_1_1" index="1" speed="13.90" length="19.85" shape="2151.56,558.38 2132.50,553.22"/>
    </edge>
    <edge id=":100_3" function="internal">
        <lane id=":100_3_0" index="0" speed="13.90" length="6.98" shape="2151.56,558.38 2146.75,556.31 2145.60,555.00"/>
    </edge>
    <edge id=":100_4" function="internal">
        <lane id=":100_4_0" index="0" speed="13.90" length="60.87" shape="2151.56,558.38 2129.61,552.18 2122.42,549.46 2130.00,550.24 2152.35,554.50"/>
    </edge>
    <edge id=":100_5" function="internal">
        <lane id=":100_5_0" index="0" speed="13.90" length="2.58" shape="2151.56,558.38 2150.51,557.32 2150.27,556.43 2150.38,556.30"/>
    </edge>
    <edge id=":100_30" function="internal">
        <lane id=":100_30_0" index="0" speed="13.90" length="11.49" shape="2145.60,555.00 2144.08,553.29 2143.57,549.31 2145.20,544.38"/>
    </edge>
    <edge id=":100_31" function="internal">
        <lane id=":100_31_0" index="0" speed="13.90" length="2.25" shape="2150.38,556.30 2150.84,555.70 2152.22,555.14"/>
    </edge>
    <edge id=":100_6" function="internal">
        <lane id=":100_6_0" index="0" speed="13.90" length="10.44" shape="2151.04,560.97 2148.17,560.75 2145.75,561.33 2143.78,562.71 2142.24,564.89"/>
    </edge>
    <edge id=":100_7" function="internal">
        <lane id=":100_7_0" index="0" speed="13.90" length="19.82" shape="2151.04,560.97 2131.64,556.41"/>
        <lane id=":100_7_1" index="1" speed="13.90" length="19.82" shape="2151.69,557.73 2132.50,553.22"/>
    </edge>
    <edge id=":100_9" function="internal">
        <lane id=":100_9_0" index="0" speed="13.90" length="18.21" shape="2151.69,557.73 2146.80,555.99 2144.08,553.19 2143.55,549.32 2145.20,544.38"/>
    </edge>
    <edge id=":100_10" function="internal">
        <lane id=":100_10_0" index="0" speed="13.90" length="91.52" shape="2151.69,557.73 2185.30,564.14 2196.70,565.31 2185.89,561.23 2152.88,551.90"/>
    </edge>
    <edge id=":100_11" function="internal">
        <lane id=":100_11_0" index="0" speed="13.90" length="2.41" shape="2151.69,557.73 2150.65,556.68 2150.41,555.79"/>
    </edge>
    <edge id=":100_32" function="internal">
        <lane id=":100_32_0" index="0" speed="13.90" length="2.41" shape="2150.41,555.79 2150.98,555.06 2152.35,554.50"/>
    </edge>
    <edge id=":100_12" function="internal">
        <lane id=":100_12_0" index="0" speed="13.90" length="5.35" shape="2151.10,547.34 2150.62,548.79 2150.77,549.93 2151.57,550.76 2153.01,551.27"/>
    </edge>
    <edge id=":100_13" function="internal">
        <lane id=":100_13_0" index="0" speed="13.90" length="5.87" shape="2151.10,547.34 2150.54,548.97 2150.65,550.28 2151.43,551.25 2152.88,551.90"/>
    </edge>
    <edge id=":100_14" function="internal">
        <lane id=":100_14_0" index="0" speed="13.90" length="19.65" shape="2151.10,547.34 2142.24,564.89"/>
        <lane id=":100_14_1" index="1" speed="13.90" length="19.65" shape="2148.15,545.86 2139.30,563.40"/>
    </edge>
    <edge id=":100_16" function="internal">
        <lane id=":100_16_0" index="0" speed="13.90" length="11.64" shape="2148.15,545.86 2145.26,550.15 2141.68,552.81 2139.73,553.28"/>
    </edge>
    <edge id=":100_17" function="internal">
        <lane id=":100_17_0" index="0" speed="13.90" length="4.82" shape="2148.15,545.86 2146.86,546.60 2145.94,546.60 2145.39,545.86 2145.20,544.38"/>
    </edge>
    <edge id=":100_33" function="internal">
        <lane id=":100_33_0" index="0" speed="13.90" length="7.33" shape="2139.73,553.28 2137.43,553.83 2132.50,553.22"/>
    </edge>
    <edge id=":100_18" function="internal">
        <lane id=":100_18_0" index="0" speed="13.90" length="9.81" shape="2134.23,546.85 2136.73,547.14 2138.90,546.58 2140.74,545.17 2142.25,542.91"/>
    </edge>
    <edge id=":100_19" function="internal">
        <lane id=":100_19_0" index="0" speed="13.90" length="19.30" shape="2134.23,546.85 2153.01,551.27"/>
    </edge>
    <edge id=":100_20" function="internal">
        <lane id=":100_20_0" index="0" speed="13.90" length="19.43" shape="2134.23,546.85 2152.88,551.90"/>
        <lane id=":100_20_1" index="1" speed="13.90" length="19.43" shape="2133.36,550.04 2152.22,555.14"/>
    </edge>
    <edge id=":100_22" function="internal">
        <lane id=":100_22_0" index="0" speed="13.90" length="6.76" shape="2133.36,550.04 2137.93,552.01 2139.10,553.35"/>
    </edge>
    <edge id=":100_23" function="internal">
        <lane id=":100_23_0" index="0" speed="13.90" length="2.41" shape="2133.36,550.04 2134.34,551.15 2134.53,552.06"/>
    </edge>
    <edge id=":100_34" function="internal">
        <lane id=":100_34_0" index="0" speed="13.90" length="10.84" shape="2139.10,553.35 2140.44,554.89 2140.90,558.69 2139.30,563.40"/>
    </edge>
    <edge id=":100_35" function="internal">
        <lane id=":100_35_0" index="0" speed="13.90" length="2.41" shape="2134.53,552.06 2133.91,552.75 2132.50,553.22"/>
    </edge>
    <edge id=":100_24" function="internal">
        <lane id=":100_24_0" index="0" speed="13.90" length="5.27" shape="2133.42,560.40 2133.89,559.00 2133.76,557.86 2133.01,557.00 2131.64,556.41"/>
    </edge>
    <edge id=":100_25" function="internal">
        <lane id=":100_25_0" index="0" speed="13.90" length="19.61" shape="2133.42,560.40 2142.25,542.91"/>
        <lane id=":100_25_1" index="1" speed="13.90" length="19.61" shape="2136.36,561.90 2145.20,544.38"/>
    </edge>
    <edge id=":100_27" function="internal">
        <lane id=":100_27_0" index="0" speed="13.90" length="19.11" shape="2136.36,561.90 2139.20,557.82 2142.81,555.23 2147.19,554.12 2152.35,554.50"/>
    </edge>
    <edge id=":100_28" function="internal">
        <lane id=":100_28_0" index="0" speed="13.90" length="18.90" shape="2136.36,561.90 2139.20,557.83 2142.80,555.35 2147.14,554.45 2152.22,555.14"/>
    </edge>
    <edge id=":100_29" function="internal">
        <lane id=":100_29_0" index="0" speed="13.90" length="2.41" shape="2136.36,561.90 2137.65,561.17 2138.58,561.18"/>
    </edge>
    <edge id=":100_36" function="internal">
        <lane id=":100_36_0" index="0" speed="13.90" length="2.41" shape="2138.58,561.18 2139.12,561.92 2139.30,563.40"/>
    </edge>
    <edge id=":101_0" function="internal">
        <lane id=":101_0_0" index="0" speed="13.90" length="1.03" shape="407.26,98.63 406.90,98.57 406.66,98.52 406.42,98.47 406.08,98.37"/>
        <lane id=":101_0_1" index="1" speed="13.90" length="1.03" shape="407.79,95.37 407.54,95.33 407.37,95.30 407.20,95.26 406.95,95.19"/>
    </edge>
    <edge id=":101_2" function="internal">
        <lane id=":101_2_0" index="0" speed="13.90" length="2.41" shape="407.79,95.37 406.71,94.36 406.43,93.48"/>
    </edge>
    <edge id=":101_6" function="internal">
        <lane id=":101_6_0" index="0" speed="13.90" length="2.41" shape="406.43,93.48 406.98,92.73 408.33,92.12"/>
    </edge>
    <edge id=":101_3" function="internal">
        <lane id=":101_3_0" index="0" speed="13.90" length="0.34" shape="408.70,88.83 408.75,88.84 408.79,88.85 408.82,88.85 408.87,88.86"/>
        <lane id=":101_3_1" index="1" speed="13.90" length="0.34" shape="407.83,92.01 407.98,92.05 408.08,92.07 408.18,92.09 408.33,92.12"/>
    </edge>
    <edge id=":101_5" function="internal">
        <lane id=":101_5_0" index="0" speed="13.90" length="2.41" shape="407.83,92.01 408.80,93.13 408.98,94.04"/>
    </edge>
    <edge id=":101_7" function="internal">
        <lane id=":101_7_0" index="0" speed="13.90" length="2.41" shape="408.98,94.04 408.37,94.72 406.95,95.19"/>
    </edge>
    <edge id=":102_0" function="internal">
        <lane id=":102_0_0" index="0" speed="13.90" length="9.08" shape="1040.44,560.46 1038.06,560.17 1036.02,560.66 1034.32,561.92 1032.95,563.97"/>
    </edge>
    <edge id=":102_1" function="internal">
        <lane id=":102_1_0" index="0" speed="13.90" length="18.82" shape="1040.44,560.46 1022.26,555.60"/>
        <lane id=":102_1_1" index="1" speed="13.90" length="18.82" shape="1041.29,557.27 1023.11,552.42"/>
    </edge>
    <edge id=":102_3" function="internal">
        <lane id=":102_3_0" index="0" speed="13.90" length="6.68" shape="1041.29,557.27 1036.82,555.36 1035.62,554.00"/>
    </edge>
    <edge id=":102_4" function="internal">
        <lane id=":102_4_0" index="0" speed="13.90" length="2.41" shape="1041.29,557.27 1040.31,556.16 1040.13,555.25"/>
    </edge>
    <edge id=":102_20" function="internal">
        <lane id=":102_20_0" index="0" speed="13.90" length="10.62" shape="1035.62,554.00 1034.31,552.52 1033.77,548.78 1035.19,544.12"/>
    </edge>
    <edge id=":102_21" function="internal">
        <lane id=":102_21_0" index="0" speed="13.90" length="2.41" shape="1040.13,555.25 1040.74,554.56 1042.15,554.09"/>
    </edge>
    <edge id=":102_5" function="internal">
        <lane id=":102_5_0" index="0" speed="13.90" length="5.23" shape="1041.16,546.93 1040.73,548.33 1040.89,549.46 1041.65,550.32 1043.00,550.90"/>
    </edge>
    <edge id=":102_6" function="internal">
        <lane id=":102_6_0" index="0" speed="13.90" length="18.89" shape="1041.16,546.93 1032.95,563.97"/>
        <lane id=":102_6_1" index="1" speed="13.90" length="18.89" shape="1038.17,545.52 1029.99,562.51"/>
    </edge>
    <edge id=":102_8" function="internal">
        <lane id=":102_8_0" index="0" speed="13.90" length="7.16" shape="1038.17,545.52 1035.52,549.59 1033.67,550.96"/>
    </edge>
    <edge id=":102_9" function="internal">
        <lane id=":102_9_0" index="0" speed="13.90" length="2.41" shape="1038.17,545.52 1036.90,546.29 1035.98,546.32"/>
    </edge>
    <edge id=":102_22" function="internal">
        <lane id=":102_22_0" index="0" speed="13.90" length="11.08" shape="1033.67,550.96 1032.13,552.09 1027.99,553.03 1023.11,552.42"/>
    </edge>
    <edge id=":102_23" function="internal">
        <lane id=":102_23_0" index="0" speed="13.90" length="2.41" shape="1035.98,546.32 1035.41,545.59 1035.19,544.12"/>
    </edge>
    <edge id=":102_10" function="internal">
        <lane id=":102_10_0" index="0" speed="13.90" length="8.92" shape="1024.81,546.04 1027.21,546.35 1029.25,545.90 1030.91,544.69 1032.20,542.72"/>
    </edge>
    <edge id=":102_11" function="internal">
        <lane id=":102_11_0" index="0" speed="13.90" length="18.83" shape="1024.81,546.04 1043.00,550.90"/>
        <lane id=":102_11_1" index="1" speed="13.90" length="18.83" shape="1023.96,549.23 1042.15,554.09"/>
    </edge>
    <edge id=":102_13" function="internal">
        <lane id=":102_13_0" index="0" speed="13.90" length="6.75" shape="1023.96,549.23 1028.51,551.17 1029.70,552.52"/>
    </edge>
    <edge id=":102_14" function="internal">
        <lane id=":102_14_0" index="0" speed="13.90" length="2.41" shape="1023.96,549.23 1024.94,550.34 1025.13,551.25"/>
    </edge>
    <edge id=":102_24" function="internal">
        <lane id=":102_24_0" index="0" speed="13.90" length="10.77" shape="1029.70,552.52 1031.03,554.03 1031.52,557.81 1029.99,562.51"/>
    </edge>
    <edge id=":102_25" function="internal">
        <lane id=":102_25_0" index="0" speed="13.90" length="2.41" shape="1025.13,551.25 1024.52,551.94 1023.11,552.42"/>
    </edge>
    <edge id=":102_15" function="internal">
        <lane id=":102_15_0" index="0" speed="13.90" length="5.25" shape="1024.07,559.59 1024.53,558.18 1024.38,557.04 1023.62,556.19 1022.26,555.60"/>
    </edge>
    <edge id=":102_16" function="internal">
        <lane id=":102_16_0" index="0" speed="13.90" length="18.76" shape="1024.07,559.59 1032.20,542.72"/>
        <lane id=":102_16_1" index="1" speed="13.90" length="18.76" shape="1027.03,561.05 1035.19,544.12"/>
    </edge>
    <edge id=":102_18" function="internal">
        <lane id=":102_18_0" index="0" speed="13.90" length="7.05" shape="1027.03,561.05 1029.77,556.97 1031.49,555.71"/>
    </edge>
    <edge id=":102_19" function="internal">
        <lane id=":102_19_0" index="0" speed="13.90" length="2.41" shape="1027.03,561.05 1028.32,560.31 1029.24,560.30"/>
    </edge>
    <edge id=":102_26" function="internal">
        <lane id=":102_26_0" index="0" speed="13.90" length="11.22" shape="1031.49,555.71 1033.21,554.44 1037.33,553.49 1042.15,554.09"/>
    </edge>
    <edge id=":102_27" function="internal">
        <lane id=":102_27_0" index="0" speed="13.90" length="2.41" shape="1029.24,560.30 1029.80,561.04 1029.99,562.51"/>
    </edge>
    <edge id=":103_0" function="internal">
        <lane id=":103_0_0" index="0" speed="13.90" length="4.82" shape="266.42,-0.75 267.72,-1.48 268.64,-1.47 269.19,-0.73 269.36,0.75"/>
    </edge>
    <edge id=":104_0" function="internal">
        <lane id=":104_0_0" index="0" speed="13.90" length="0.25" shape="440.78,639.27 440.66,639.24"/>
        <lane id=":104_0_1" index="1" speed="13.90" length="0.25" shape="441.65,636.09 441.29,636.00"/>
    </edge>
    <edge id=":104_2" function="internal">
        <lane id=":104_2_0" index="0" speed="13.90" length="2.41" shape="441.65,636.09 440.67,634.97 440.49,634.06"/>
    </edge>
    <edge id=":104_6" function="internal">
        <lane id=":104_6_0" index="0" speed="13.90" length="2.41" shape="440.49,634.06 441.11,633.37 442.52,632.91"/>
    </edge>
    <edge id=":104_3" function="internal">
        <lane id=":104_3_0" index="0" speed="13.90" length="0.74" shape="442.55,629.53 443.39,629.72"/>
        <lane id=":104_3_1" index="1" speed="13.90" length="0.74" shape="441.92,632.76 442.52,632.91"/>
    </edge>
    <edge id=":104_5" function="internal">
        <lane id=":104_5_0" index="0" speed="13.90" length="2.41" shape="441.92,632.76 442.98,633.81 443.22,634.70"/>
    </edge>
    <edge id=":104_7" function="internal">
        <lane id=":104_7_0" index="0" speed="13.90" length="2.41" shape="443.22,634.70 442.66,635.43 441.29,636.00"/>
    </edge>
    <edge id=":105_0" function="internal">
        <lane id=":105_0_0" index="0" speed="13.90" length="8.82" shape="503.68,564.69 501.28,564.37 499.25,564.80 497.61,565.98 496.36,567.91"/>
    </edge>
    <edge id=":105_1" function="internal">
        <lane id=":105_1_0" index="0" speed="13.90" length="18.82" shape="503.68,564.69 485.51,559.80"/>
        <lane id=":105_1_1" index="1" speed="13.90" length="18.82" shape="504.54,561.51 486.37,556.61"/>
    </edge>
    <edge id=":105_3" function="internal">
        <lane id=":105_3_0" index="0" speed="13.90" length="6.75" shape="504.54,561.51 499.97,559.54 498.81,558.20"/>
    </edge>
    <edge id=":105_4" function="internal">
        <lane id=":105_4_0" index="0" speed="13.90" length="2.41" shape="504.54,561.51 503.56,560.39 503.38,559.48"/>
    </edge>
    <edge id=":105_20" function="internal">