<edges><edge from="30" id="30to14" numLanes="2" to="14" /><edge from="14" id="14to30" numLanes="2" to="30" /><edge from="14" id="14to122" numLanes="2" to="122" /><edge from="122" id="122to14" numLanes="2" to="14" /><edge from="122" id="122to22" numLanes="2" to="22" /><edge from="22" id="22to122" numLanes="2" to="122" /><edge from="22" id="22to53" numLanes="2" to="53" /><edge from="53" id="53to22" numLanes="2" to="22" /><edge from="149" id="149to108" numLanes="2" to="108" /><edge from="108" id="108to149" numLanes="2" to="149" /><edge from="108" id="108to15" numLanes="2" to="15" /><edge from="15" id="15to108" numLanes="2" to="108" /><edge from="15" id="15to19" numLanes="2" to="19" /><edge from="19" id="19to15" numLanes="2" to="15" /><edge from="19" id="19to136" numLanes="2" to="136" /><edge from="136" id="136to19" numLanes="2" to="19" /><edge from="105" id="105to0" numLanes="2" to="0" /><edge from="0" id="0to105" numLanes="2" to="105" /><edge from="85" id="85to130" numLanes="2" to="130" /><edge from="130" id="130to85" numLanes="2" to="85" /><edge from="119" id="119to32" numLanes="2" to="32" /><edge from="32" id="32to119" numLanes="2" to="119" /><edge from="32" id="32to61" numLanes="2" to="61" /><edge from="61" id="61to32" numLanes="2" to="32" /><edge from="61" id="61to152" numLanes="2" to="152" /><edge from="152" id="152to61" numLanes="2" to="61" /><edge from="152" id="152to3" numLanes="2" to="3" /><edge from="3" id="3to152" numLanes="2" to="152" /><edge from="70" id="70to100" numLanes="2" to="100" /><edge from="100" id="100to70" numLanes="2" to="70" /><edge from="107" id="107to70" numLanes="2" to="70" /><edge from="70" id="70to107" numLanes="2" to="107" /><edge from="24" id="24to107" numLanes="2" to="107" /><edge from="107" id="107to24" numLanes="2" to="24" /><edge from="150" id="150to24" numLanes="2" to="24" /><edge from="24" id="24to150" numLanes="2" to="150" /><edge from="69" id="69to116" numLanes="2" to="116" /><edge from="116" id="116to69" numLanes="2" to="69" /><edge from="10" id="10to144" numLanes="2" to="144" /><edge from="144" id="144to10" numLanes="2" to="10" /><edge from="153" id="153to23" numLanes="2" to="23" /><edge from="23" id="23to153" numLanes="2" to="153" /><edge from="38" id="38to153" numLanes="2" to="153" /><edge from="153" id="153to38" numLanes="2" to="38" /><edge from="46" id="46to38" numLanes="2" to="38" /><edge from="38" id="38to46" numLanes="2" to="46" /><edge from="28" id="28to46" numLanes="2" to="46" /><edge from="46" id="46to28" numLanes="2" to="28" /><edge from="154" id="154to28" numLanes="2" to="28" /><edge from="28" id="28to154" numLanes="2" to="154" /><edge from="108" id="108to154" numLanes="2" to="154" /><edge from="154" id="154to108" numLanes="2" to="108" /><edge from="128" id="128to108" numLanes="2" to="108" /><edge from="108" id="108to128" numLanes="2" to="128" /><edge from="43" id="43to67" numLanes="2" to="67" /><edge from="67" id="67to43" numLanes="2" to="43" /><edge from="84" id="84to147" numLanes="2" to="147" /><edge from="147" id="147to84" numLanes="2" to="84" /><edge from="147" id="147to109" numLanes="2" to="109" /><edge from="109" id="109to147" numLanes="2" to="147" /><edge from="109" id="109to1" numLanes="2" to="1" /><edge from="1" id="1to109" numLanes="2" to="109" /><edge from="1" id="1to25" numLanes="2" to="25" /><edge from="25" id="25to1" numLanes="2" to="1" /><edge from="25" id="25to77" numLanes="2" to="77" /><edge from="77" id="77to25" numLanes="2" to="25" /><edge from="77" id="77to142" numLanes="2" to="142" /><edge from="142" id="142to77" numLanes="2" to="77" /><edge from="142" id="142to60" numLanes="2" to="60" /><edge from="60" id="60to142" numLanes="2" to="142" /><edge from="60" id="60to15" numLanes="2" to="15" /><edge from="15" id="15to60" numLanes="2" to="60" /><edge from="78" id="78to15" numLanes="2" to="15" /><edge from="15" id="15to78" numLanes="2" to="78" /><edge from="97" id="97to57" numLanes="2" to="57" /><edge from="57" id="57to97" numLanes="2" to="97" /><edge from="41" id="41to97" numLanes="2" to="97" /><edge from="97" id="97to41" numLanes="2" to="41" /><edge from="95" id="95to41" numLanes="2" to="41" /><edge from="41" id="41to95" numLanes="2" to="95" /><edge from="123" id="123to95" numLanes="2" to="95" /><edge from="95" id="95to123" numLanes="2" to="123" /><edge from="45" id="45to19" numLanes="2" to="19" /><edge from="19" id="19to45" numLanes="2" to="45" /><edge from="19" id="19to74" numLanes="2" to="74" /><edge from="74" id="74to19" numLanes="2" to="19" /><edge from="74" id="74to52" numLanes="2" to="52" /><edge from="52" id="52to74" numLanes="2" to="74" /><edge from="52" id="52to102" numLanes="2" to="102" /><edge from="102" id="102to52" numLanes="2" to="52" /><edge from="102" id="102to156" numLanes="2" to="156" /><edge from="156" id="156to102" numLanes="2" to="102" /><edge from="156" id="156to131" numLanes="2" to="131" /><edge from="131" id="131to156" numLanes="2" to="156" /><edge from="131" id="131to51" numLanes="2" to="51" /><edge from="51" id="51to131" numLanes="2" to="131" /><edge from="51" id="51to49" numLanes="2" to="49" /><edge from="49" id="49to51" numLanes="2" to="51" /><edge from="49" id="49to7" numLanes="2" to="7" /><edge from="7" id="7to49" numLanes="2" to="49" /><edge from="136" id="136to44" numLanes="2" to="44" /><edge from="44" id="44to136" numLanes="2" to="136" /><edge from="42" id="42to136" numLanes="2" to="136" /><edge from="136" id="136to42" numLanes="2" to="42" /><edge from="132" id="132to42" numLanes="2" to="42" /><edge from="42" id="42to132" numLanes="2" to="132" /><edge from="129" id="129to132" numLanes="2" to="132" /><edge from="132" id="132to129" numLanes="2" to="129" /><edge from="57" id="57to129" numLanes="2" to="129" /><edge from="129" id="129to57" numLanes="2" to="57" /><edge from="112" id="112to105" numLanes="2" to="105" /><edge from="105" id="105to112" numLanes="2" to="112" /><edge from="105" id="105to4" numLanes="2" to="4" /><edge from="4" id="4to105" numLanes="2" to="105" /><edge from="4" id="4to146" numLanes="2" to="146" /><edge from="146" id="146to4" numLanes="2" to="4" /><edge from="146" id="146to56" numLanes="2" to="56" /><edge from="56" id="56to146" numLanes="2" to="146" /><edge from="148" id="148to80" numLanes="2" to="80" /><edge from="80" id="80to148" numLanes="2" to="148" /><edge from="80" id="80to121" numLanes="2" to="121" /><edge from="121" id="121to80" numLanes="2" to="80" /><edge from="121" id="121to115" numLanes="2" to="115" /><edge from="115" id="115to121" numLanes="2" to="121" /><edge from="115" id="115to98" numLanes="2" to="98" /><edge from="98" id="98to115" numLanes="2" to="115" /><edge from="12" id="12to0" numLanes="2" to="0" /><edge from="0" id="0to12" numLanes="2" to="12" /><edge from="140" id="140to0" numLanes="2" to="0" /><edge from="0" id="0to140" numLanes="2" to="140" /><edge from="26" id="26to140" numLanes="2" to="140" /><edge from="140" id="140to26" numLanes="2" to="26" /><edge from="106" id="106to26" numLanes="2" to="26" /><edge from="26" id="26to106" numLanes="2" to="106" /><edge from="138" id="138to157" numLanes="2" to="157" /><edge from="157" id="157to138" numLanes="2" to="138" /><edge from="139" id="139to138" numLanes="2" to="138" /><edge from="138" id="138to139" numLanes="2" to="139" /><edge from="90" id="90to88" numLanes="2" to="88" /><edge from="88" id="88to90" numLanes="2" to="90" /><edge from="88" id="88to134" numLanes="2" to="134" /><edge from="134" id="134to88" numLanes="2" to="88" /><edge from="28" id="28to152" numLanes="2" to="152" /><edge from="152" id="152to28" numLanes="2" to="28" /><edge from="142" id="142to28" numLanes="2" to="28" /><edge from="28" id="28to142" numLanes="2" to="142" /><edge from="52" id="52to142" numLanes="2" to="142" /><edge from="142" id="142to52" numLanes="2" to="52" /><edge from="132" id="132to52" numLanes="2" to="52" /><edge from="52" id="52to132" numLanes="2" to="132" /><edge from="146" id="146to132" numLanes="2" to="132" /><edge from="132" id="132to146" numLanes="2" to="146" /><edge from="26" id="26to146" numLanes="2" to="146" /><edge from="146" id="146to26" numLanes="2" to="26" /><edge from="22" id="22to85" numLanes="2" to="85" /><edge from="85" id="85to22" numLanes="2" to="22" /><edge from="85" id="85to10" numLanes="2" to="10" /><edge from="10" id="10to85" numLanes="2" to="85" /><edge from="10" id="10to147" numLanes="2" to="147" /><edge from="147" id="147to10" numLanes="2" to="10" /><edge from="147" id="147to49" numLanes="2" to="49" /><edge from="49" id="49to147" numLanes="2" to="147" /><edge from="49" id="49to95" numLanes="2" to="95" /><edge from="95" id="95to49" numLanes="2" to="49" /><edge from="95" id="95to115" numLanes="2" to="115" /><edge from="115" id="115to95" numLanes="2" to="95" /><edge from="115" id="115to138" numLanes="2" to="138" /><edge from="138" id="138to115" numLanes="2" to="115" /><edge from="140" id="140to141" numLanes="2" to="141" /><edge from="141" id="141to140" numLanes="2" to="140" /><edge from="4" id="4to140" numLanes="2" to="140" /><edge from="140" id="140to4" numLanes="2" to="4" /><edge from="154" id="154to60" numLanes="2" to="60" /><edge from="60" id="60to154" numLanes="2" to="154" /><edge from="3" id="3to154" numLanes="2" to="154" /><edge from="154" id="154to3" numLanes="2" to="3" /><edge from="61" id="61to46" numLanes="2" to="46" /><edge from="46" id="46to61" numLanes="2" to="61" /><edge from="46" id="46to77" numLanes="2" to="77" /><edge from="77" id="77to46" numLanes="2" to="46" /><edge from="56" id="56to106" numLanes="2" to="106" /><edge from="106" id="106to56" numLanes="2" to="56" /><edge from="106" id="106to134" numLanes="2" to="134" /><edge from="134" id="134to106" numLanes="2" to="106" /><edge from="157" id="157to40" numLanes="2" to="40" /><edge from="40" id="40to157" numLanes="2" to="157" /><edge from="121" id="121to157" numLanes="2" to="157" /><edge from="157" id="157to121" numLanes="2" to="121" /><edge from="41" id="41to121" numLanes="2" to="121" /><edge from="121" id="121to41" numLanes="2" to="41" /><edge from="51" id="51to41" numLanes="2" to="41" /><edge from="41" id="41to51" numLanes="2" to="51" /><edge from="109" id="109to51" numLanes="2" to="51" /><edge from="51" id="51to109" numLanes="2" to="109" /><edge from="23" id="23to109" numLanes="2" to="109" /><edge from="109" id="109to23" numLanes="2" to="23" /><edge from="130" id="130to23" numLanes="2" to="23" /><edge from="23" id="23to130" numLanes="2" to="130" /><edge from="144" id="144to84" numLanes="2" to="84" /><edge from="84" id="84to144" numLanes="2" to="144" /><edge from="110" id="110to88" numLanes="2" to="88" /><edge from="88" id="88to110" numLanes="2" to="110" /><edge from="7" id="7to33" numLanes="2" to="33" /><edge from="33" id="33to7" numLanes="2" to="7" /><edge from="33" id="33to150" numLanes="2" to="150" /><edge from="150" id="150to33" numLanes="2" to="33" /><edge from="89" id="89to150" numLanes="2" to="150" /><edge from="150" id="150to89" numLanes="2" to="89" /><edge from="71" id="71to50" numLanes="2" to="50" /><edge from="50" id="50to71" numLanes="2" to="71" /><edge from="40" id="40to127" numLanes="2" to="127" /><edge from="127" id="127to40" numLanes="2" to="40" /><edge from="48" id="48to117" numLanes="2" to="117" /><edge from="117" id="117to48" numLanes="2" to="48" /><edge from="149" id="149to66" numLanes="2" to="66" /><edge from="66" id="66to149" numLanes="2" to="149" /><edge from="76" id="76to31" numLanes="2" to="31" /><edge from="31" id="31to76" numLanes="2" to="76" /><edge from="76" id="76to133" numLanes="2" to="133" /><edge from="133" id="133to76" numLanes="2" to="76" /><edge from="75" id="75to143" numLanes="2" to="143" /><edge from="143" id="143to75" numLanes="2" to="75" /><edge from="135" id="135to20" numLanes="2" to="20" /><edge from="20" id="20to135" numLanes="2" to="135" /><edge from="20" id="20to72" numLanes="2" to="72" /><edge from="72" id="72to20" numLanes="2" to="20" /><edge from="48" id="48to59" numLanes="2" to="59" /><edge from="59" id="59to48" numLanes="2" to="48" /><edge from="127" id="127to143" numLanes="2" to="143" /><edge from="143" id="143to127" numLanes="2" to="127" /><edge from="124" id="124to128" numLanes="2" to="128" /><edge from="128" id="128to124" numLanes="2" to="124" /><edge from="64" id="64to36" numLanes="2" to="36" /><edge from="36" id="36to64" numLanes="2" to="64" /><edge from="93" id="93to113" numLanes="2" to="113" /><edge from="113" id="113to93" numLanes="2" to="93" /><edge from="113" id="113to34" numLanes="2" to="34" /><edge from="34" id="34to113" numLanes="2" to="113" /><edge from="64" id="64to35" numLanes="2" to="35" /><edge from="35" id="35to64" numLanes="2" to="64" /><edge from="35" id="35to50" numLanes="2" to="50" /><edge from="50" id="50to35" numLanes="2" to="35" /><edge from="66" id="66to82" numLanes="2" to="82" /><edge from="82" id="82to66" numLanes="2" to="66" /><edge from="82" id="82to96" numLanes="2" to="96" /><edge from="96" id="96to82" numLanes="2" to="82" /><edge from="69" id="69to55" numLanes="2" to="55" /><edge from="55" id="55to69" numLanes="2" to="69" /><edge from="60" id="60to74" numLanes="2" to="74" /><edge from="74" id="74to60" numLanes="2" to="60" /><edge from="74" id="74to42" numLanes="2" to="42" /><edge from="42" id="42to74" numLanes="2" to="74" /><edge from="42" id="42to4" numLanes="2" to="4" /><edge from="4" id="4to42" numLanes="2" to="42" /><edge from="77" id="77to102" numLanes="2" to="102" /><edge from="102" id="102to77" numLanes="2" to="77" /><edge from="102" id="102to129" numLanes="2" to="129" /><edge from="129" id="129to102" numLanes="2" to="102" /><edge from="129" id="129to56" numLanes="2" to="56" /><edge from="56" id="56to129" numLanes="2" to="129" /><edge from="53" id="53to79" numLanes="2" to="79" /><edge from="79" id="79to53" numLanes="2" to="53" /><edge from="84" id="84to7" numLanes="2" to="7" /><edge from="7" id="7to84" numLanes="2" to="84" /><edge from="7" id="7to123" numLanes="2" to="123" /><edge from="123" id="123to7" numLanes="2" to="7" /><edge from="123" id="123to98" numLanes="2" to="98" /><edge from="98" id="98to123" numLanes="2" to="123" /><edge from="98" id="98to139" numLanes="2" to="139" /><edge from="139" id="139to98" numLanes="2" to="98" /><edge from="122" id="122to130" numLanes="2" to="130" /><edge from="130" id="130to122" numLanes="2" to="122" /><edge from="153" id="153to119" numLanes="2" to="119" /><edge from="119" id="119to153" numLanes="2" to="153" /><edge from="83" id="83to158" numLanes="2" to="158" /><edge from="158" id="158to83" numLanes="2" to="83" /><edge from="101" id="101to135" numLanes="2" to="135" /><edge from="135" id="135to101" numLanes="2" to="101" /><edge from="72" id="72to39" numLanes="2" to="39" /><edge from="39" id="39to72" numLanes="2" to="72" /><edge from="59" id="59to72" numLanes="2" to="72" /><edge from="72" id="72to59" numLanes="2" to="59" /><edge from="72" id="72to117" numLanes="2" to="117" /><edge from="117" id="117to72" numLanes="2" to="72" /><edge from="73" id="73to83" numLanes="2" to="83" /><edge from="83" id="83to73" numLanes="2" to="73" /><edge from="91" id="91to73" numLanes="2" to="73" /><edge from="73" id="73to91" numLanes="2" to="91" /><edge from="58" id="58to91" numLanes="2" to="91" /><edge from="91" id="91to58" numLanes="2" to="58" /><edge from="73" id="73to103" numLanes="2" to="103" /><edge from="103" id="103to73" numLanes="2" to="73" /><edge from="66" id="66to29" numLanes="2" to="29" /><edge from="29" id="29to66" numLanes="2" to="66" /><edge from="29" id="29to86" numLanes="2" to="86" /><edge from="86" id="86to29" numLanes="2" to="29" /><edge from="9" id="9to35" numLanes="2" to="35" /><edge from="35" id="35to9" numLanes="2" to="9" /><edge from="31" id="31to9" numLanes="2" to="9" /><edge from="9" id="9to31" numLanes="2" to="31" /><edge from="155" id="155to43" numLanes="2" to="43" /><edge from="43" id="43to155" numLanes="2" to="155" /><edge from="135" id="135to17" numLanes="2" to="17" /><edge from="17" id="17to135" numLanes="2" to="135" /><edge from="17" id="17to87" numLanes="2" to="87" /><edge from="87" id="87to17" numLanes="2" to="17" /><edge from="5" id="5to17" numLanes="2" to="17" /><edge from="17" id="17to5" numLanes="2" to="5" /><edge from="17" id="17to20" numLanes="2" to="20" /><edge from="20" id="20to17" numLanes="2" to="17" /><edge from="20" id="20to118" numLanes="2" to="118" /><edge from="118" id="118to20" numLanes="2" to="20" /><edge from="65" id="65to75" numLanes="2" to="75" /><edge from="75" id="75to65" numLanes="2" to="65" /><edge from="133" id="133to62" numLanes="2" to="62" /><edge from="62" id="62to133" numLanes="2" to="133" /><edge from="158" id="158to127" numLanes="2" to="127" /><edge from="127" id="127to158" numLanes="2" to="158" /><edge from="127" id="127to58" numLanes="2" to="58" /><edge from="58" id="58to127" numLanes="2" to="127" /><edge from="138" id="138to127" numLanes="2" to="127" /><edge from="127" id="127to138" numLanes="2" to="138" /><edge from="127" id="127to63" numLanes="2" to="63" /><edge from="63" id="63to127" numLanes="2" to="127" /><edge from="124" id="124to11" numLanes="2" to="11" /><edge from="11" id="11to124" numLanes="2" to="124" /><edge from="114" id="114to6" numLanes="2" to="6" /><edge from="6" id="6to114" numLanes="2" to="114" /><edge from="6" id="6to94" numLanes="2" to="94" /><edge from="94" id="94to6" numLanes="2" to="6" /><edge from="94" id="94to13" numLanes="2" to="13" /><edge from="13" id="13to94" numLanes="2" to="94" /><edge from="126" id="126to114" numLanes="2" to="114" /><edge from="114" id="114to126" numLanes="2" to="126" /><edge from="13" id="13to145" numLanes="2" to="145" /><edge from="145" id="145to13" numLanes="2" to="13" /><edge from="145" id="145to141" numLanes="2" to="141" /><edge from="141" id="141to145" numLanes="2" to="145" /><edge from="141" id="141to90" numLanes="2" to="90" /><edge from="90" id="90to141" numLanes="2" to="141" /><edge from="8" id="8to40" numLanes="2" to="40" /><edge from="40" id="40to8" numLanes="2" to="8" /><edge from="119" id="119to14" numLanes="2" to="14" /><edge from="14" id="14to119" numLanes="2" to="119" /><edge from="30" id="30to32" numLanes="2" to="32" /><edge from="32" id="32to30" numLanes="2" to="30" /><edge from="32" id="32to38" numLanes="2" to="38" /><edge from="38" id="38to32" numLanes="2" to="32" /><edge from="1" id="1to153" numLanes="2" to="153" /><edge from="153" id="153to1" numLanes="2" to="1" /><edge from="38" id="38to25" numLanes="2" to="25" /><edge from="25" id="25to38" numLanes="2" to="38" /><edge from="131" id="131to1" numLanes="2" to="1" /><edge from="1" id="1to131" numLanes="2" to="131" /><edge from="25" id="25to156" numLanes="2" to="156" /><edge from="156" id="156to25" numLanes="2" to="25" /><edge from="97" id="97to131" numLanes="2" to="131" /><edge from="131" id="131to97" numLanes="2" to="97" /><edge from="156" id="156to57" numLanes="2" to="57" /><edge from="57" id="57to156" numLanes="2" to="156" /><edge from="80" id="80to97" numLanes="2" to="97" /><edge from="97" id="97to80" numLanes="2" to="80" /><edge from="57" id="57to148" numLanes="2" to="148" /><edge from="148" id="148to57" numLanes="2" to="57" /><edge from="50" id="50to149" numLanes="2" to="149" /><edge from="149" id="149to50" numLanes="2" to="50" /><edge from="136" id="136to105" numLanes="2" to="105" /><edge from="105" id="105to136" numLanes="2" to="136" /><edge from="0" id="0to145" numLanes="2" to="145" /><edge from="145" id="145to0" numLanes="2" to="0" /><edge from="145" id="145to151" numLanes="2" to="151" /><edge from="151" id="151to145" numLanes="2" to="145" /><edge from="100" id="100to21" numLanes="2" to="21" /><edge from="21" id="21to100" numLanes="2" to="100" /><edge from="100" id="100to27" numLanes="2" to="27" /><edge from="27" id="27to100" numLanes="2" to="100" /><edge from="137" id="137to89" numLanes="2" to="89" /><edge from="89" id="89to137" numLanes="2" to="137" /><edge from="116" id="116to137" numLanes="2" to="137" /><edge from="137" id="137to116" numLanes="2" to="116" /><edge from="39" id="39to55" numLanes="2" to="55" /><edge from="55" id="55to39" numLanes="2" to="39" /><edge from="55" id="55to101" numLanes="2" to="101" /><edge from="101" id="101to55" numLanes="2" to="55" /><edge from="87" id="87to73" numLanes="2" to="73" /><edge from="73" id="73to87" numLanes="2" to="87" /><edge from="73" id="73to48" numLanes="2" to="48" /><edge from="48" id="48to73" numLanes="2" to="73" /><edge from="73" id="73to120" numLanes="2" to="120" /><edge from="120" id="120to73" numLanes="2" to="73" /><edge from="90" id="90to26" numLanes="2" to="26" /><edge from="26" id="26to90" numLanes="2" to="90" /><edge from="110" id="110to90" numLanes="2" to="90" /><edge from="90" id="90to110" numLanes="2" to="110" /><edge from="36" id="36to96" numLanes="2" to="96" /><edge from="96" id="96to36" numLanes="2" to="36" /><edge from="11" id="11to82" numLanes="2" to="82" /><edge from="82" id="82to11" numLanes="2" to="11" /><edge from="82" id="82to76" numLanes="2" to="76" /><edge from="76" id="76to82" numLanes="2" to="82" /><edge from="96" id="96to68" numLanes="2" to="68" /><edge from="68" id="68to96" numLanes="2" to="96" /><edge from="125" id="125to2" numLanes="2" to="2" /><edge from="2" id="2to125" numLanes="2" to="125" /><edge from="2" id="2to124" numLanes="2" to="124" /><edge from="124" id="124to2" numLanes="2" to="2" /><edge from="68" id="68to104" numLanes="2" to="104" /><edge from="104" id="104to68" numLanes="2" to="68" /><edge from="104" id="104to126" numLanes="2" to="126" /><edge from="126" id="126to104" numLanes="2" to="104" /><edge from="6" id="6to125" numLanes="2" to="125" /><edge from="125" id="125to6" numLanes="2" to="6" /><edge from="130" id="130to119" numLanes="2" to="119" /><edge from="119" id="119to130" numLanes="2" to="130" /><edge from="3" id="3to149" numLanes="2" to="149" /><edge from="149" id="149to3" numLanes="2" to="3" /><edge from="79" id="79to85" numLanes="2" to="85" /><edge from="85" id="85to79" numLanes="2" to="79" /><edge from="70" id="70to79" numLanes="2" to="79" /><edge from="79" id="79to70" numLanes="2" to="70" /><edge from="100" id="100to37" numLanes="2" to="37" /><edge from="37" id="37to100" numLanes="2" to="100" /><edge from="53" id="53to100" numLanes="2" to="100" /><edge from="100" id="100to53" numLanes="2" to="53" /><edge from="107" id="107to99" numLanes="2" to="99" /><edge from="99" id="99to107" numLanes="2" to="107" /><edge from="144" id="144to107" numLanes="2" to="107" /><edge from="107" id="107to144" numLanes="2" to="144" /><edge from="23" id="23to10" numLanes="2" to="10" /><edge from="10" id="10to23" numLanes="2" to="23" /><edge from="24" id="24to84" numLanes="2" to="84" /><edge from="84" id="84to24" numLanes="2" to="24" /><edge from="137" id="137to123" numLanes="2" to="123" /><edge from="123" id="123to137" numLanes="2" to="137" /><edge from="150" id="150to16" numLanes="2" to="16" /><edge from="16" id="16to150" numLanes="2" to="150" /><edge from="69" id="69to139" numLanes="2" to="139" /><edge from="139" id="139to69" numLanes="2" to="69" /><edge from="98" id="98to116" numLanes="2" to="116" /><edge from="116" id="116to98" numLanes="2" to="98" /><edge from="54" id="54to106" numLanes="2" to="106" /><edge from="106" id="106to54" numLanes="2" to="54" /><edge from="56" id="56to148" numLanes="2" to="148" /><edge from="148" id="148to56" numLanes="2" to="56" /><edge from="71" id="71to18" numLanes="2" to="18" /><edge from="18" id="18to71" numLanes="2" to="71" /><edge from="35" id="35to66" numLanes="2" to="66" /><edge from="66" id="66to35" numLanes="2" to="35" /><edge from="66" id="66to128" numLanes="2" to="128" /><edge from="128" id="128to66" numLanes="2" to="66" /><edge from="128" id="128to78" numLanes="2" to="78" /><edge from="78" id="78to128" numLanes="2" to="128" /><edge from="78" id="78to45" numLanes="2" to="45" /><edge from="45" id="45to78" numLanes="2" to="78" /><edge from="45" id="45to44" numLanes="2" to="44" /><edge from="44" id="44to45" numLanes="2" to="45" /><edge from="44" id="44to112" numLanes="2" to="112" /><edge from="112" id="112to44" numLanes="2" to="44" /><edge from="112" id="112to12" numLanes="2" to="12" /><edge from="12" id="12to112" numLanes="2" to="112" /><edge from="12" id="12to13" numLanes="2" to="13" /><edge from="13" id="13to12" numLanes="2" to="12" /><edge from="94" id="94to125" numLanes="2" to="125" /><edge from="125" id="125to94" numLanes="2" to="94" /><edge from="13" id="13to47" numLanes="2" to="47" /><edge from="47" id="47to13" numLanes="2" to="13" /><edge from="81" id="81to67" numLanes="2" to="67" /><edge from="67" id="67to81" numLanes="2" to="81" /><edge from="93" id="93to81" numLanes="2" to="81" /><edge from="81" id="81to93" numLanes="2" to="93" /><edge from="155" id="155to81" numLanes="2" to="81" /><edge from="81" id="81to155" numLanes="2" to="155" /><edge from="81" id="81to34" numLanes="2" to="34" /><edge from="34" id="34to81" numLanes="2" to="81" /><edge from="81" id="81to8" numLanes="2" to="8" /><edge from="8" id="8to81" numLanes="2" to="81" /><edge from="134" id="134to81" numLanes="2" to="81" /><edge from="81" id="81to134" numLanes="2" to="134" /><edge from="34" id="34to111" numLanes="2" to="111" /><edge from="111" id="111to34" numLanes="2" to="34" /><edge from="111" id="111to155" numLanes="2" to="155" /><edge from="155" id="155to111" numLanes="2" to="111" /><edge from="148" id="148to111" numLanes="2" to="111" /><edge from="111" id="111to148" numLanes="2" to="148" /><edge from="111" id="111to80" numLanes="2" to="80" /><edge from="80" id="80to111" numLanes="2" to="111" /><edge from="111" id="111to54" numLanes="2" to="54" /><edge from="54" id="54to111" numLanes="2" to="111" /><edge from="157" id="157to111" numLanes="2" to="111" /><edge from="111" id="111to157" numLanes="2" to="157" /><edge from="89" id="89to92" numLanes="2" to="92" /><edge from="92" id="92to89" numLanes="2" to="89" /></edges>