<?xml version="1.0" encoding="UTF-8"?>
<nodes xmlns:xsi="http://www.w3.org/2001/XMLSchema-instance" xsi:noNamespaceSchemaLocation="http://sumo.dlr.de/xsd/nodes_file.xsd">
    <node id="0" x="-200.0" y="+200.0"  type="traffic_light"/>
    <node id="1" x="+200.0" y="+200.0"  type="traffic_light"/>
    <node id="2" x="+200.0" y="-200.0"  type="traffic_light"/>
    <node id="3" x="-200.0" y="-200.0"  type="traffic_light"/>

    <node id="00" x="-500.0" y="+200.0" type="priority"/>
    <node id="01" x="-200.0" y="+500.0" type="priority"/>
    <node id="10" x="+200.0" y="+500.0" type="priority"/>
    <node id="11" x="+500.0" y="+200.0" type="priority"/>
    <node id="20" x="+500.0" y="-200.0" type="priority"/>
    <node id="21" x="+200.0" y="-500.0" type="priority"/>
    <node id="30" x="-200.0" y="-500.0" type="priority"/>
    <node id="31" x="-500.0" y="-200.0" type="priority"/>
</nodes>
