<routes>
    <vType id="0" accel="0.8" decel="4.5" sigma="0.5" length="5" minGap="2.5" maxSpeed="16.67" guiShape="passenger"/>
    <vType id="1" accel="0.8" decel="4.5" sigma="0.5" length="7" minGap="3" maxSpeed="25" guiShape="bus"/>

    <route id="00" edges="00_0i 0_1 1_11o" />
    <route id="01" edges="01_0i 0_3 3_30o" />
    <route id="10" edges="10_1i 1_2 2_21o" />
    <route id="11" edges="11_1i 1_0 0_00o" />
    <route id="20" edges="20_2i 2_3 3_31o" />
    <route id="21" edges="21_2i 2_1 1_10o" />
    <route id="30" edges="30_3i 3_0 0_01o" />
    <route id="31" edges="31_3i 3_2 2_20o" />

<vehicle id="01_0" type="0" route="01" depart="0" />
<vehicle id="11_1" type="0" route="11" depart="1" />
<vehicle id="31_2" type="0" route="31" depart="1" />
<vehicle id="01_3" type="0" route="01" depart="1" />
<vehicle id="10_4" type="0" route="10" depart="1" />
<vehicle id="00_5" type="0" route="00" depart="3" />
<vehicle id="00_6" type="0" route="00" depart="5" />
<vehicle id="20_7" type="0" route="20" depart="5" />
<vehicle id="31_8" type="0" route="31" depart="5" />
<vehicle id="30_9" type="0" route="30" depart="5" />
<vehicle id="11_10" type="0" route="11" depart="7" />
<vehicle id="20_11" type="0" route="20" depart="7" />
<vehicle id="30_12" type="0" route="30" depart="7" />
<vehicle id="00_13" type="0" route="00" depart="10" />
<vehicle id="31_14" type="0" route="31" depart="10" />
<vehicle id="10_15" type="0" route="10" depart="11" />
<vehicle id="30_16" type="0" route="30" depart="11" />
<vehicle id="01_17" type="0" route="01" depart="12" />
<vehicle id="00_18" type="0" route="00" depart="13" />
<vehicle id="11_19" type="0" route="11" depart="13" />
<vehicle id="20_20" type="0" route="20" depart="13" />
<vehicle id="30_21" type="0" route="30" depart="13" />
<vehicle id="11_22" type="0" route="11" depart="14" />
<vehicle id="20_23" type="0" route="20" depart="14" />
<vehicle id="11_24" type="0" route="11" depart="15" />
<vehicle id="20_25" type="0" route="20" depart="17" />
<vehicle id="00_26" type="0" route="00" depart="18" />
<vehicle id="11_27" type="0" route="11" depart="18" />
<vehicle id="30_28" type="0" route="30" depart="18" />
<vehicle id="21_29" type="0" route="21" depart="21" />
<vehicle id="10_30" type="0" route="10" depart="22" />
<vehicle id="11_31" type="0" route="11" depart="24" />
<vehicle id="21_32" type="0" route="21" depart="24" />
<vehicle id="00_33" type="0" route="00" depart="26" />
<vehicle id="10_34" type="0" route="10" depart="27" />
<vehicle id="11_35" type="0" route="11" depart="29" />
<vehicle id="10_36" type="0" route="10" depart="29" />
<vehicle id="11_37" type="0" route="11" depart="30" />
<vehicle id="20_38" type="0" route="20" depart="30" />
<vehicle id="21_39" type="0" route="21" depart="30" />
<vehicle id="00_40" type="0" route="00" depart="31" />
<vehicle id="30_41" type="0" route="30" depart="31" />
<vehicle id="31_42" type="0" route="31" depart="32" />
<vehicle id="21_43" type="0" route="21" depart="32" />
<vehicle id="20_44" type="0" route="20" depart="33" />
<vehicle id="31_45" type="0" route="31" depart="33" />
<vehicle id="11_46" type="0" route="11" depart="34" />
<vehicle id="20_47" type="0" route="20" depart="34" />
<vehicle id="31_48" type="0" route="31" depart="34" />
<vehicle id="11_49" type="0" route="11" depart="35" />
<vehicle id="20_50" type="0" route="20" depart="37" />
<vehicle id="31_51" type="0" route="31" depart="38" />
<vehicle id="31_52" type="0" route="31" depart="40" />
<vehicle id="30_53" type="0" route="30" depart="40" />
<vehicle id="11_54" type="0" route="11" depart="41" />
<vehicle id="30_55" type="0" route="30" depart="41" />
<vehicle id="00_56" type="0" route="00" depart="43" />
<vehicle id="00_57" type="0" route="00" depart="45" />
<vehicle id="11_58" type="0" route="11" depart="45" />
<vehicle id="31_59" type="0" route="31" depart="45" />
<vehicle id="21_60" type="0" route="21" depart="46" />
<vehicle id="11_61" type="0" route="11" depart="47" />
<vehicle id="11_62" type="0" route="11" depart="48" />
<vehicle id="11_63" type="0" route="11" depart="49" />
<vehicle id="20_64" type="0" route="20" depart="49" />
<vehicle id="31_65" type="0" route="31" depart="49" />
<vehicle id="00_66" type="0" route="00" depart="50" />
<vehicle id="20_67" type="0" route="20" depart="51" />
<vehicle id="20_68" type="0" route="20" depart="53" />
<vehicle id="01_69" type="0" route="01" depart="53" />
<vehicle id="00_70" type="0" route="00" depart="54" />
<vehicle id="11_71" type="0" route="11" depart="54" />
<vehicle id="30_72" type="0" route="30" depart="54" />
<vehicle id="00_73" type="0" route="00" depart="56" />
<vehicle id="20_74" type="0" route="20" depart="56" />
<vehicle id="21_75" type="0" route="21" depart="56" />
<vehicle id="21_76" type="0" route="21" depart="57" />
<vehicle id="00_77" type="0" route="00" depart="58" />
<vehicle id="11_78" type="0" route="11" depart="58" />
<vehicle id="01_79" type="0" route="01" depart="59" />
<vehicle id="11_80" type="0" route="11" depart="61" />
<vehicle id="31_81" type="0" route="31" depart="62" />
<vehicle id="30_82" type="0" route="30" depart="62" />
<vehicle id="00_83" type="0" route="00" depart="63" />
<vehicle id="00_84" type="0" route="00" depart="64" />
<vehicle id="20_85" type="0" route="20" depart="64" />
<vehicle id="30_86" type="0" route="30" depart="64" />
<vehicle id="11_87" type="0" route="11" depart="65" />
<vehicle id="00_88" type="0" route="00" depart="66" />
<vehicle id="21_89" type="0" route="21" depart="66" />
<vehicle id="30_90" type="0" route="30" depart="66" />
<vehicle id="01_91" type="0" route="01" depart="67" />
<vehicle id="10_92" type="0" route="10" depart="67" />
<vehicle id="30_93" type="0" route="30" depart="67" />
<vehicle id="30_94" type="0" route="30" depart="68" />
<vehicle id="11_95" type="0" route="11" depart="71" />
<vehicle id="01_96" type="0" route="01" depart="73" />
<vehicle id="31_97" type="0" route="31" depart="74" />
<vehicle id="20_98" type="0" route="20" depart="76" />
<vehicle id="31_99" type="0" route="31" depart="77" />
<vehicle id="20_100" type="0" route="20" depart="78" />
<vehicle id="01_101" type="0" route="01" depart="78" />
<vehicle id="31_102" type="0" route="31" depart="80" />
<vehicle id="21_103" type="0" route="21" depart="80" />
<vehicle id="00_104" type="0" route="00" depart="82" />
<vehicle id="21_105" type="0" route="21" depart="82" />
<vehicle id="00_106" type="0" route="00" depart="83" />
<vehicle id="11_107" type="0" route="11" depart="85" />
<vehicle id="10_108" type="0" route="10" depart="85" />
<vehicle id="31_109" type="0" route="31" depart="86" />
<vehicle id="10_110" type="0" route="10" depart="86" />
<vehicle id="11_111" type="0" route="11" depart="88" />
<vehicle id="10_112" type="0" route="10" depart="90" />
<vehicle id="00_113" type="0" route="00" depart="91" />
<vehicle id="30_114" type="0" route="30" depart="91" />
<vehicle id="21_115" type="0" route="21" depart="92" />
<vehicle id="00_116" type="0" route="00" depart="93" />
<vehicle id="20_117" type="0" route="20" depart="94" />
<vehicle id="00_118" type="0" route="00" depart="95" />
<vehicle id="11_119" type="0" route="11" depart="95" />
<vehicle id="21_120" type="0" route="21" depart="96" />
<vehicle id="20_121" type="0" route="20" depart="97" />
<vehicle id="01_122" type="0" route="01" depart="97" />
<vehicle id="11_123" type="0" route="11" depart="98" />
<vehicle id="11_124" type="0" route="11" depart="99" />
<vehicle id="20_125" type="0" route="20" depart="100" />
<vehicle id="21_126" type="0" route="21" depart="100" />
<vehicle id="21_127" type="0" route="21" depart="101" />
<vehicle id="31_128" type="0" route="31" depart="102" />
<vehicle id="30_129" type="0" route="30" depart="102" />
<vehicle id="00_130" type="0" route="00" depart="103" />
<vehicle id="01_131" type="0" route="01" depart="106" />
<vehicle id="01_132" type="0" route="01" depart="107" />
<vehicle id="21_133" type="0" route="21" depart="107" />
<vehicle id="01_134" type="0" route="01" depart="108" />
<vehicle id="10_135" type="0" route="10" depart="108" />
<vehicle id="11_136" type="0" route="11" depart="109" />
<vehicle id="00_137" type="0" route="00" depart="111" />
<vehicle id="11_138" type="0" route="11" depart="112" />
<vehicle id="01_139" type="0" route="01" depart="112" />
<vehicle id="00_140" type="0" route="00" depart="113" />
<vehicle id="31_141" type="0" route="31" depart="113" />
<vehicle id="21_142" type="0" route="21" depart="115" />
<vehicle id="00_143" type="0" route="00" depart="121" />
<vehicle id="11_144" type="0" route="11" depart="121" />
<vehicle id="20_145" type="0" route="20" depart="121" />
<vehicle id="31_146" type="0" route="31" depart="122" />
<vehicle id="20_147" type="0" route="20" depart="123" />
<vehicle id="01_148" type="0" route="01" depart="124" />
<vehicle id="31_149" type="0" route="31" depart="125" />
<vehicle id="01_150" type="0" route="01" depart="125" />
<vehicle id="21_151" type="0" route="21" depart="125" />
<vehicle id="30_152" type="0" route="30" depart="125" />
<vehicle id="11_153" type="0" route="11" depart="127" />
<vehicle id="00_154" type="0" route="00" depart="128" />
<vehicle id="31_155" type="0" route="31" depart="130" />
<vehicle id="30_156" type="0" route="30" depart="130" />
<vehicle id="00_157" type="0" route="00" depart="132" />
<vehicle id="20_158" type="0" route="20" depart="132" />
<vehicle id="11_159" type="0" route="11" depart="133" />
<vehicle id="20_160" type="0" route="20" depart="133" />
<vehicle id="31_161" type="0" route="31" depart="134" />
<vehicle id="11_162" type="0" route="11" depart="135" />
<vehicle id="31_163" type="0" route="31" depart="135" />
<vehicle id="11_164" type="0" route="11" depart="136" />
<vehicle id="00_165" type="0" route="00" depart="137" />
<vehicle id="31_166" type="0" route="31" depart="137" />
<vehicle id="11_167" type="0" route="11" depart="140" />
<vehicle id="20_168" type="0" route="20" depart="140" />
<vehicle id="11_169" type="0" route="11" depart="141" />
<vehicle id="11_170" type="0" route="11" depart="142" />
<vehicle id="00_171" type="0" route="00" depart="143" />
<vehicle id="10_172" type="0" route="10" depart="144" />
<vehicle id="00_173" type="0" route="00" depart="147" />
<vehicle id="20_174" type="0" route="20" depart="147" />
<vehicle id="30_175" type="0" route="30" depart="147" />
<vehicle id="31_176" type="0" route="31" depart="149" />
<vehicle id="01_177" type="0" route="01" depart="150" />
<vehicle id="01_178" type="0" route="01" depart="151" />
<vehicle id="11_179" type="0" route="11" depart="152" />
<vehicle id="20_180" type="0" route="20" depart="152" />
<vehicle id="31_181" type="0" route="31" depart="152" />
<vehicle id="01_182" type="0" route="01" depart="152" />
<vehicle id="11_183" type="0" route="11" depart="154" />
<vehicle id="30_184" type="0" route="30" depart="156" />
<vehicle id="00_185" type="0" route="00" depart="157" />
<vehicle id="11_186" type="0" route="11" depart="157" />
<vehicle id="21_187" type="0" route="21" depart="157" />
<vehicle id="20_188" type="0" route="20" depart="158" />
<vehicle id="01_189" type="0" route="01" depart="159" />
<vehicle id="10_190" type="0" route="10" depart="160" />
<vehicle id="00_191" type="0" route="00" depart="162" />
<vehicle id="00_192" type="0" route="00" depart="163" />
<vehicle id="30_193" type="0" route="30" depart="164" />
<vehicle id="31_194" type="0" route="31" depart="166" />
<vehicle id="01_195" type="0" route="01" depart="166" />
<vehicle id="21_196" type="0" route="21" depart="166" />
<vehicle id="00_197" type="0" route="00" depart="167" />
<vehicle id="11_198" type="0" route="11" depart="167" />
<vehicle id="11_199" type="0" route="11" depart="168" />
<vehicle id="20_200" type="0" route="20" depart="170" />
<vehicle id="31_201" type="0" route="31" depart="170" />
<vehicle id="00_202" type="0" route="00" depart="171" />
<vehicle id="20_203" type="0" route="20" depart="171" />
<vehicle id="10_204" type="0" route="10" depart="171" />
<vehicle id="21_205" type="0" route="21" depart="172" />
<vehicle id="30_206" type="0" route="30" depart="173" />
<vehicle id="20_207" type="0" route="20" depart="174" />
<vehicle id="20_208" type="0" route="20" depart="175" />
<vehicle id="00_209" type="0" route="00" depart="176" />
<vehicle id="20_210" type="0" route="20" depart="176" />
<vehicle id="11_211" type="0" route="11" depart="177" />
<vehicle id="20_212" type="0" route="20" depart="177" />
<vehicle id="30_213" type="0" route="30" depart="177" />
<vehicle id="00_214" type="0" route="00" depart="178" />
<vehicle id="20_215" type="0" route="20" depart="178" />
<vehicle id="00_216" type="0" route="00" depart="179" />
<vehicle id="20_217" type="0" route="20" depart="179" />
<vehicle id="21_218" type="0" route="21" depart="179" />
<vehicle id="30_219" type="0" route="30" depart="179" />
<vehicle id="11_220" type="0" route="11" depart="180" />
<vehicle id="11_221" type="0" route="11" depart="181" />
<vehicle id="20_222" type="0" route="20" depart="181" />
<vehicle id="21_223" type="0" route="21" depart="181" />
<vehicle id="31_224" type="0" route="31" depart="182" />
<vehicle id="31_225" type="0" route="31" depart="183" />
<vehicle id="01_226" type="0" route="01" depart="183" />
<vehicle id="31_227" type="0" route="31" depart="184" />
<vehicle id="10_228" type="0" route="10" depart="184" />
<vehicle id="11_229" type="0" route="11" depart="185" />
<vehicle id="20_230" type="0" route="20" depart="186" />
<vehicle id="01_231" type="0" route="01" depart="186" />
<vehicle id="30_232" type="0" route="30" depart="186" />
<vehicle id="20_233" type="0" route="20" depart="187" />
<vehicle id="11_234" type="0" route="11" depart="188" />
<vehicle id="30_235" type="0" route="30" depart="188" />
<vehicle id="11_236" type="0" route="11" depart="189" />
<vehicle id="31_237" type="0" route="31" depart="189" />
<vehicle id="11_238" type="0" route="11" depart="191" />
<vehicle id="31_239" type="0" route="31" depart="191" />
<vehicle id="21_240" type="0" route="21" depart="191" />
<vehicle id="11_241" type="0" route="11" depart="192" />
<vehicle id="21_242" type="0" route="21" depart="193" />
<vehicle id="20_243" type="0" route="20" depart="194" />
<vehicle id="01_244" type="0" route="01" depart="194" />
<vehicle id="30_245" type="0" route="30" depart="195" />
<vehicle id="01_246" type="0" route="01" depart="196" />
<vehicle id="00_247" type="0" route="00" depart="197" />
<vehicle id="21_248" type="0" route="21" depart="197" />
<vehicle id="11_249" type="0" route="11" depart="198" />
<vehicle id="00_250" type="0" route="00" depart="202" />
<vehicle id="00_251" type="0" route="00" depart="203" />
<vehicle id="01_252" type="0" route="01" depart="203" />
<vehicle id="21_253" type="0" route="21" depart="203" />
<vehicle id="30_254" type="0" route="30" depart="203" />
<vehicle id="00_255" type="0" route="00" depart="204" />
<vehicle id="20_256" type="0" route="20" depart="204" />
<vehicle id="20_257" type="0" route="20" depart="205" />
<vehicle id="00_258" type="0" route="00" depart="206" />
<vehicle id="11_259" type="0" route="11" depart="208" />
<vehicle id="31_260" type="0" route="31" depart="208" />
<vehicle id="01_261" type="0" route="01" depart="210" />
<vehicle id="20_262" type="0" route="20" depart="213" />
<vehicle id="21_263" type="0" route="21" depart="213" />
<vehicle id="10_264" type="0" route="10" depart="214" />
<vehicle id="00_265" type="0" route="00" depart="215" />
<vehicle id="30_266" type="0" route="30" depart="216" />
<vehicle id="11_267" type="0" route="11" depart="217" />
<vehicle id="00_268" type="0" route="00" depart="218" />
<vehicle id="01_269" type="0" route="01" depart="220" />
<vehicle id="20_270" type="0" route="20" depart="221" />
<vehicle id="01_271" type="0" route="01" depart="222" />
<vehicle id="31_272" type="0" route="31" depart="223" />
<vehicle id="10_273" type="0" route="10" depart="224" />
<vehicle id="00_274" type="0" route="00" depart="227" />
<vehicle id="01_275" type="0" route="01" depart="228" />
<vehicle id="11_276" type="0" route="11" depart="229" />
<vehicle id="31_277" type="0" route="31" depart="231" />
<vehicle id="00_278" type="0" route="00" depart="232" />
<vehicle id="00_279" type="0" route="00" depart="233" />
<vehicle id="10_280" type="0" route="10" depart="233" />
<vehicle id="11_281" type="0" route="11" depart="234" />
<vehicle id="00_282" type="0" route="00" depart="236" />
<vehicle id="21_283" type="0" route="21" depart="236" />
<vehicle id="01_284" type="0" route="01" depart="237" />
<vehicle id="20_285" type="0" route="20" depart="238" />
<vehicle id="31_286" type="0" route="31" depart="239" />
<vehicle id="01_287" type="0" route="01" depart="239" />
<vehicle id="21_288" type="0" route="21" depart="239" />
<vehicle id="00_289" type="0" route="00" depart="240" />
<vehicle id="11_290" type="0" route="11" depart="240" />
<vehicle id="20_291" type="0" route="20" depart="240" />
<vehicle id="01_292" type="0" route="01" depart="240" />
<vehicle id="10_293" type="0" route="10" depart="242" />
<vehicle id="21_294" type="0" route="21" depart="242" />
<vehicle id="00_295" type="0" route="00" depart="243" />
<vehicle id="11_296" type="0" route="11" depart="244" />
<vehicle id="31_297" type="0" route="31" depart="244" />
<vehicle id="00_298" type="0" route="00" depart="245" />
<vehicle id="11_299" type="0" route="11" depart="245" />
<vehicle id="21_300" type="0" route="21" depart="245" />
<vehicle id="00_301" type="0" route="00" depart="246" />
<vehicle id="20_302" type="0" route="20" depart="247" />
<vehicle id="00_303" type="0" route="00" depart="248" />
<vehicle id="31_304" type="0" route="31" depart="248" />
<vehicle id="30_305" type="0" route="30" depart="248" />
<vehicle id="31_306" type="0" route="31" depart="250" />
<vehicle id="30_307" type="0" route="30" depart="250" />
<vehicle id="00_308" type="0" route="00" depart="253" />
<vehicle id="10_309" type="0" route="10" depart="255" />
<vehicle id="11_310" type="0" route="11" depart="256" />
<vehicle id="01_311" type="0" route="01" depart="256" />
<vehicle id="20_312" type="0" route="20" depart="257" />
<vehicle id="00_313" type="0" route="00" depart="258" />
<vehicle id="20_314" type="0" route="20" depart="258" />
<vehicle id="30_315" type="0" route="30" depart="258" />
<vehicle id="10_316" type="0" route="10" depart="260" />
<vehicle id="20_317" type="0" route="20" depart="261" />
<vehicle id="00_318" type="0" route="00" depart="262" />
<vehicle id="31_319" type="0" route="31" depart="262" />
<vehicle id="20_320" type="0" route="20" depart="263" />
<vehicle id="11_321" type="0" route="11" depart="264" />
<vehicle id="30_322" type="0" route="30" depart="264" />
<vehicle id="00_323" type="0" route="00" depart="266" />
<vehicle id="20_324" type="0" route="20" depart="266" />
<vehicle id="20_325" type="0" route="20" depart="267" />
<vehicle id="31_326" type="0" route="31" depart="267" />
<vehicle id="11_327" type="0" route="11" depart="270" />
<vehicle id="20_328" type="0" route="20" depart="270" />
<vehicle id="00_329" type="0" route="00" depart="272" />
<vehicle id="11_330" type="0" route="11" depart="273" />
<vehicle id="21_331" type="0" route="21" depart="273" />
<vehicle id="30_332" type="0" route="30" depart="274" />
<vehicle id="20_333" type="0" route="20" depart="277" />
<vehicle id="01_334" type="0" route="01" depart="279" />
<vehicle id="11_335" type="0" route="11" depart="280" />
<vehicle id="10_336" type="0" route="10" depart="282" />
<vehicle id="00_337" type="0" route="00" depart="285" />
<vehicle id="11_338" type="0" route="11" depart="285" />
<vehicle id="30_339" type="0" route="30" depart="285" />
<vehicle id="00_340" type="0" route="00" depart="286" />
<vehicle id="11_341" type="0" route="11" depart="286" />
<vehicle id="31_342" type="0" route="31" depart="286" />
<vehicle id="00_343" type="0" route="00" depart="288" />
<vehicle id="31_344" type="0" route="31" depart="289" />
<vehicle id="00_345" type="0" route="00" depart="292" />
<vehicle id="00_346" type="0" route="00" depart="293" />
<vehicle id="10_347" type="0" route="10" depart="293" />
<vehicle id="00_348" type="0" route="00" depart="295" />
<vehicle id="20_349" type="0" route="20" depart="295" />
<vehicle id="31_350" type="0" route="31" depart="295" />
<vehicle id="01_351" type="0" route="01" depart="295" />
<vehicle id="01_352" type="0" route="01" depart="296" />
<vehicle id="11_353" type="0" route="11" depart="297" />
<vehicle id="20_354" type="0" route="20" depart="297" />
<vehicle id="00_355" type="0" route="00" depart="298" />
<vehicle id="31_356" type="0" route="31" depart="298" />
<vehicle id="31_357" type="0" route="31" depart="299" />
<vehicle id="11_358" type="0" route="11" depart="300" />
<vehicle id="00_359" type="0" route="00" depart="301" />
<vehicle id="21_360" type="0" route="21" depart="301" />
<vehicle id="11_361" type="0" route="11" depart="302" />
<vehicle id="11_362" type="0" route="11" depart="303" />
<vehicle id="20_363" type="0" route="20" depart="304" />
<vehicle id="01_364" type="0" route="01" depart="304" />
<vehicle id="11_365" type="0" route="11" depart="306" />
<vehicle id="31_366" type="0" route="31" depart="306" />
<vehicle id="31_367" type="0" route="31" depart="307" />
<vehicle id="01_368" type="0" route="01" depart="309" />
<vehicle id="00_369" type="0" route="00" depart="310" />
<vehicle id="01_370" type="0" route="01" depart="310" />
<vehicle id="11_371" type="0" route="11" depart="311" />
<vehicle id="20_372" type="0" route="20" depart="311" />
<vehicle id="31_373" type="0" route="31" depart="311" />
<vehicle id="11_374" type="0" route="11" depart="312" />
<vehicle id="31_375" type="0" route="31" depart="312" />
<vehicle id="10_376" type="0" route="10" depart="313" />
<vehicle id="30_377" type="0" route="30" depart="314" />
<vehicle id="30_378" type="0" route="30" depart="315" />
<vehicle id="11_379" type="0" route="11" depart="316" />
<vehicle id="31_380" type="0" route="31" depart="316" />
<vehicle id="20_381" type="0" route="20" depart="320" />
<vehicle id="21_382" type="0" route="21" depart="320" />
<vehicle id="10_383" type="0" route="10" depart="321" />
<vehicle id="00_384" type="0" route="00" depart="323" />
<vehicle id="00_385" type="0" route="00" depart="325" />
<vehicle id="01_386" type="0" route="01" depart="325" />
<vehicle id="00_387" type="0" route="00" depart="326" />
<vehicle id="20_388" type="0" route="20" depart="326" />
<vehicle id="01_389" type="0" route="01" depart="326" />
<vehicle id="11_390" type="0" route="11" depart="328" />
<vehicle id="00_391" type="0" route="00" depart="329" />
<vehicle id="01_392" type="0" route="01" depart="330" />
<vehicle id="21_393" type="0" route="21" depart="330" />
<vehicle id="01_394" type="0" route="01" depart="331" />
<vehicle id="01_395" type="0" route="01" depart="333" />
<vehicle id="20_396" type="0" route="20" depart="334" />
<vehicle id="11_397" type="0" route="11" depart="335" />
<vehicle id="20_398" type="0" route="20" depart="335" />
<vehicle id="31_399" type="0" route="31" depart="336" />
<vehicle id="31_400" type="0" route="31" depart="337" />
<vehicle id="31_401" type="0" route="31" depart="338" />
<vehicle id="11_402" type="0" route="11" depart="339" />
<vehicle id="20_403" type="0" route="20" depart="339" />
<vehicle id="31_404" type="0" route="31" depart="339" />
<vehicle id="01_405" type="0" route="01" depart="339" />
<vehicle id="00_406" type="0" route="00" depart="340" />
<vehicle id="31_407" type="0" route="31" depart="342" />
<vehicle id="21_408" type="0" route="21" depart="342" />
<vehicle id="00_409" type="0" route="00" depart="343" />
<vehicle id="31_410" type="0" route="31" depart="343" />
<vehicle id="31_411" type="0" route="31" depart="344" />
<vehicle id="10_412" type="0" route="10" depart="344" />
<vehicle id="20_413" type="0" route="20" depart="345" />
<vehicle id="31_414" type="0" route="31" depart="345" />
<vehicle id="01_415" type="0" route="01" depart="347" />
<vehicle id="21_416" type="0" route="21" depart="347" />
<vehicle id="11_417" type="0" route="11" depart="348" />
<vehicle id="20_418" type="0" route="20" depart="348" />
<vehicle id="31_419" type="0" route="31" depart="348" />
<vehicle id="30_420" type="0" route="30" depart="349" />
<vehicle id="00_421" type="0" route="00" depart="350" />
<vehicle id="21_422" type="0" route="21" depart="350" />
<vehicle id="30_423" type="0" route="30" depart="352" />
<vehicle id="11_424" type="0" route="11" depart="353" />
<vehicle id="00_425" type="0" route="00" depart="354" />
<vehicle id="11_426" type="0" route="11" depart="354" />
<vehicle id="30_427" type="0" route="30" depart="356" />
<vehicle id="21_428" type="0" route="21" depart="358" />
<vehicle id="31_429" type="0" route="31" depart="360" />
<vehicle id="20_430" type="0" route="20" depart="361" />
<vehicle id="31_431" type="0" route="31" depart="361" />
<vehicle id="21_432" type="0" route="21" depart="362" />
<vehicle id="00_433" type="0" route="00" depart="363" />
<vehicle id="10_434" type="0" route="10" depart="363" />
<vehicle id="00_435" type="0" route="00" depart="364" />
<vehicle id="10_436" type="0" route="10" depart="364" />
<vehicle id="21_437" type="0" route="21" depart="364" />
<vehicle id="20_438" type="0" route="20" depart="365" />
<vehicle id="21_439" type="0" route="21" depart="366" />
<vehicle id="00_440" type="0" route="00" depart="368" />
<vehicle id="00_441" type="0" route="00" depart="369" />
<vehicle id="00_442" type="0" route="00" depart="370" />
<vehicle id="10_443" type="0" route="10" depart="370" />
<vehicle id="20_444" type="0" route="20" depart="371" />
<vehicle id="10_445" type="0" route="10" depart="371" />
<vehicle id="20_446" type="0" route="20" depart="372" />
<vehicle id="01_447" type="0" route="01" depart="372" />
<vehicle id="31_448" type="0" route="31" depart="373" />
<vehicle id="30_449" type="0" route="30" depart="374" />
<vehicle id="31_450" type="0" route="31" depart="376" />
<vehicle id="10_451" type="0" route="10" depart="379" />
<vehicle id="21_452" type="0" route="21" depart="379" />
<vehicle id="11_453" type="0" route="11" depart="380" />
<vehicle id="11_454" type="0" route="11" depart="383" />
<vehicle id="21_455" type="0" route="21" depart="383" />
<vehicle id="11_456" type="0" route="11" depart="384" />
<vehicle id="30_457" type="0" route="30" depart="384" />
<vehicle id="00_458" type="0" route="00" depart="385" />
<vehicle id="11_459" type="0" route="11" depart="385" />
<vehicle id="31_460" type="0" route="31" depart="386" />
<vehicle id="31_461" type="0" route="31" depart="387" />
<vehicle id="31_462" type="0" route="31" depart="388" />
<vehicle id="00_463" type="0" route="00" depart="389" />
<vehicle id="11_464" type="0" route="11" depart="389" />
<vehicle id="10_465" type="0" route="10" depart="389" />
<vehicle id="20_466" type="0" route="20" depart="390" />
<vehicle id="21_467" type="0" route="21" depart="390" />
<vehicle id="30_468" type="0" route="30" depart="390" />
<vehicle id="20_469" type="0" route="20" depart="391" />
<vehicle id="01_470" type="0" route="01" depart="391" />
<vehicle id="11_471" type="0" route="11" depart="392" />
<vehicle id="20_472" type="0" route="20" depart="392" />
<vehicle id="31_473" type="0" route="31" depart="393" />
<vehicle id="00_474" type="0" route="00" depart="394" />
<vehicle id="20_475" type="0" route="20" depart="396" />
<vehicle id="30_476" type="0" route="30" depart="397" />
<vehicle id="20_477" type="0" route="20" depart="398" />
<vehicle id="21_478" type="0" route="21" depart="398" />
<vehicle id="11_479" type="0" route="11" depart="399" />
<vehicle id="00_480" type="0" route="00" depart="400" />
<vehicle id="31_481" type="0" route="31" depart="400" />
<vehicle id="00_482" type="0" route="00" depart="401" />
<vehicle id="01_483" type="0" route="01" depart="401" />
<vehicle id="20_484" type="0" route="20" depart="402" />
<vehicle id="21_485" type="0" route="21" depart="402" />
<vehicle id="21_486" type="0" route="21" depart="404" />
<vehicle id="11_487" type="0" route="11" depart="406" />
<vehicle id="20_488" type="0" route="20" depart="406" />
<vehicle id="01_489" type="0" route="01" depart="406" />
<vehicle id="00_490" type="0" route="00" depart="407" />
<vehicle id="10_491" type="0" route="10" depart="408" />
<vehicle id="21_492" type="0" route="21" depart="408" />
<vehicle id="11_493" type="0" route="11" depart="409" />
<vehicle id="20_494" type="0" route="20" depart="409" />
<vehicle id="00_495" type="0" route="00" depart="410" />
<vehicle id="20_496" type="0" route="20" depart="410" />
<vehicle id="11_497" type="0" route="11" depart="411" />
<vehicle id="30_498" type="0" route="30" depart="411" />
<vehicle id="10_499" type="0" route="10" depart="412" />
<vehicle id="20_500" type="0" route="20" depart="414" />
<vehicle id="00_501" type="0" route="00" depart="415" />
<vehicle id="11_502" type="0" route="11" depart="415" />
<vehicle id="21_503" type="0" route="21" depart="415" />
<vehicle id="10_504" type="0" route="10" depart="416" />
<vehicle id="00_505" type="0" route="00" depart="417" />
<vehicle id="11_506" type="0" route="11" depart="417" />
<vehicle id="31_507" type="0" route="31" depart="417" />
<vehicle id="00_508" type="0" route="00" depart="418" />
<vehicle id="11_509" type="0" route="11" depart="418" />
<vehicle id="00_510" type="0" route="00" depart="419" />
<vehicle id="30_511" type="0" route="30" depart="419" />
<vehicle id="30_512" type="0" route="30" depart="420" />
<vehicle id="21_513" type="0" route="21" depart="421" />
<vehicle id="11_514" type="0" route="11" depart="422" />
<vehicle id="31_515" type="0" route="31" depart="422" />
<vehicle id="31_516" type="0" route="31" depart="423" />
<vehicle id="00_517" type="0" route="00" depart="424" />
<vehicle id="20_518" type="0" route="20" depart="424" />
<vehicle id="10_519" type="0" route="10" depart="424" />