<routes>
    <vType id="0" accel="0.8" decel="4.5" sigma="0.5" length="5" minGap="2.5" maxSpeed="16.67" guiShape="passenger"/>
    <vType id="1" accel="0.8" decel="4.5" sigma="0.5" length="7" minGap="3" maxSpeed="25" guiShape="bus"/>

    <route id="WE" edges="51o 1i 2o 52i" />
    <route id="EW" edges="52o 2i 1o 51i" />
    <route id="NS" edges="54o 4i 3o 53i" />

<vehicle id="EW_0" type="0" route="EW" depart="0" />
<vehicle id="WE_1" type="0" route="WE" depart="1" />
<vehicle id="WE_2" type="0" route="WE" depart="3" />
<vehicle id="EW_3" type="0" route="EW" depart="3" />
<vehicle id="EW_4" type="0" route="EW" depart="5" />
<vehicle id="EW_5" type="0" route="EW" depart="6" />
<vehicle id="EW_6" type="0" route="EW" depart="7" />
<vehicle id="WE_7" type="0" route="WE" depart="8" />
<vehicle id="EW_8" type="0" route="EW" depart="9" />
<vehicle id="WE_9" type="0" route="WE" depart="10" />
<vehicle id="EW_10" type="0" route="EW" depart="10" />
<vehicle id="NS_11" type="0" route="NS" depart="11" />
<vehicle id="EW_12" type="0" route="EW" depart="12" />
<vehicle id="WE_13" type="0" route="WE" depart="13" />
<vehicle id="EW_14" type="0" route="EW" depart="14" />
<vehicle id="WE_15" type="0" route="WE" depart="20" />
<vehicle id="NS_16" type="0" route="NS" depart="20" />
<vehicle id="WE_17" type="0" route="WE" depart="21" />
<vehicle id="EW_18" type="0" route="EW" depart="22" />
<vehicle id="EW_19" type="0" route="EW" depart="23" />
<vehicle id="EW_20" type="0" route="EW" depart="25" />
<vehicle id="WE_21" type="0" route="WE" depart="26" />
<vehicle id="WE_22" type="0" route="WE" depart="27" />
<vehicle id="EW_23" type="0" route="EW" depart="28" />
<vehicle id="WE_24" type="0" route="WE" depart="29" />
<vehicle id="WE_25" type="0" route="WE" depart="30" />
<vehicle id="WE_26" type="0" route="WE" depart="31" />
<vehicle id="EW_27" type="0" route="EW" depart="31" />
<vehicle id="WE_28" type="0" route="WE" depart="33" />
<vehicle id="NS_29" type="0" route="NS" depart="33" />
<vehicle id="WE_30" type="0" route="WE" depart="34" />
<vehicle id="EW_31" type="0" route="EW" depart="34" />
<vehicle id="NS_32" type="0" route="NS" depart="34" />
<vehicle id="EW_33" type="0" route="EW" depart="35" />
<vehicle id="EW_34" type="0" route="EW" depart="37" />
<vehicle id="WE_35" type="0" route="WE" depart="41" />
<vehicle id="WE_36" type="0" route="WE" depart="43" />
<vehicle id="WE_37" type="0" route="WE" depart="44" />
<vehicle id="EW_38" type="0" route="EW" depart="46" />
<vehicle id="EW_39" type="0" route="EW" depart="47" />
<vehicle id="WE_40" type="0" route="WE" depart="48" />
<vehicle id="WE_41" type="0" route="WE" depart="51" />
<vehicle id="EW_42" type="0" route="EW" depart="53" />
<vehicle id="WE_43" type="0" route="WE" depart="54" />
<vehicle id="EW_44" type="0" route="EW" depart="55" />
<vehicle id="EW_45" type="0" route="EW" depart="56" />
<vehicle id="NS_46" type="0" route="NS" depart="57" />
<vehicle id="WE_47" type="0" route="WE" depart="60" />
<vehicle id="WE_48" type="0" route="WE" depart="61" />
<vehicle id="EW_49" type="0" route="EW" depart="61" />
<vehicle id="WE_50" type="0" route="WE" depart="63" />
<vehicle id="EW_51" type="0" route="EW" depart="63" />
<vehicle id="WE_52" type="0" route="WE" depart="65" />
<vehicle id="EW_53" type="0" route="EW" depart="65" />
<vehicle id="EW_54" type="0" route="EW" depart="66" />
<vehicle id="WE_55" type="0" route="WE" depart="67" />
<vehicle id="EW_56" type="0" route="EW" depart="67" />
<vehicle id="WE_57" type="0" route="WE" depart="70" />
<vehicle id="EW_58" type="0" route="EW" depart="71" />
<vehicle id="WE_59" type="0" route="WE" depart="73" />
<vehicle id="WE_60" type="0" route="WE" depart="74" />
<vehicle id="WE_61" type="0" route="WE" depart="75" />
<vehicle id="EW_62" type="0" route="EW" depart="75" />
<vehicle id="NS_63" type="0" route="NS" depart="75" />
<vehicle id="WE_64" type="0" route="WE" depart="76" />
<vehicle id="NS_65" type="0" route="NS" depart="78" />
<vehicle id="WE_66" type="0" route="WE" depart="80" />
<vehicle id="WE_67" type="0" route="WE" depart="83" />
<vehicle id="EW_68" type="0" route="EW" depart="85" />
<vehicle id="WE_69" type="0" route="WE" depart="86" />
<vehicle id="WE_70" type="0" route="WE" depart="88" />
<vehicle id="EW_71" type="0" route="EW" depart="88" />
<vehicle id="EW_72" type="0" route="EW" depart="89" />
<vehicle id="WE_73" type="0" route="WE" depart="91" />
<vehicle id="EW_74" type="0" route="EW" depart="92" />
<vehicle id="EW_75" type="0" route="EW" depart="93" />
<vehicle id="WE_76" type="0" route="WE" depart="95" />
<vehicle id="WE_77" type="0" route="WE" depart="97" />
<vehicle id="EW_78" type="0" route="EW" depart="97" />
<vehicle id="EW_79" type="0" route="EW" depart="98" />
<vehicle id="WE_80" type="0" route="WE" depart="99" />
<vehicle id="WE_81" type="0" route="WE" depart="100" />
<vehicle id="EW_82" type="0" route="EW" depart="100" />
<vehicle id="EW_83" type="0" route="EW" depart="101" />
<vehicle id="NS_84" type="0" route="NS" depart="102" />
<vehicle id="WE_85" type="0" route="WE" depart="105" />
<vehicle id="NS_86" type="0" route="NS" depart="105" />
<vehicle id="WE_87" type="0" route="WE" depart="106" />
<vehicle id="EW_88" type="0" route="EW" depart="107" />
<vehicle id="WE_89" type="0" route="WE" depart="108" />
<vehicle id="EW_90" type="0" route="EW" depart="109" />
<vehicle id="EW_91" type="0" route="EW" depart="110" />
<vehicle id="WE_92" type="0" route="WE" depart="111" />
<vehicle id="EW_93" type="0" route="EW" depart="111" />
<vehicle id="EW_94" type="0" route="EW" depart="115" />
<vehicle id="EW_95" type="0" route="EW" depart="116" />
<vehicle id="EW_96" type="0" route="EW" depart="117" />
<vehicle id="NS_97" type="0" route="NS" depart="117" />
<vehicle id="EW_98" type="0" route="EW" depart="118" />
<vehicle id="WE_99" type="0" route="WE" depart="119" />
<vehicle id="EW_100" type="0" route="EW" depart="119" />
<vehicle id="EW_101" type="0" route="EW" depart="120" />
<vehicle id="EW_102" type="0" route="EW" depart="121" />
<vehicle id="EW_103" type="0" route="EW" depart="122" />
<vehicle id="EW_104" type="0" route="EW" depart="125" />
<vehicle id="WE_105" type="0" route="WE" depart="126" />
<vehicle id="EW_106" type="0" route="EW" depart="126" />
<vehicle id="NS_107" type="0" route="NS" depart="126" />
<vehicle id="WE_108" type="0" route="WE" depart="127" />
<vehicle id="WE_109" type="0" route="WE" depart="128" />
<vehicle id="EW_110" type="0" route="EW" depart="129" />
<vehicle id="WE_111" type="0" route="WE" depart="131" />
<vehicle id="EW_112" type="0" route="EW" depart="132" />
<vehicle id="WE_113" type="0" route="WE" depart="133" />
<vehicle id="WE_114" type="0" route="WE" depart="135" />
<vehicle id="WE_115" type="0" route="WE" depart="137" />
<vehicle id="WE_116" type="0" route="WE" depart="138" />
<vehicle id="WE_117" type="0" route="WE" depart="140" />
<vehicle id="EW_118" type="0" route="EW" depart="142" />
<vehicle id="WE_119" type="0" route="WE" depart="144" />
<vehicle id="EW_120" type="0" route="EW" depart="144" />
<vehicle id="WE_121" type="0" route="WE" depart="146" />
<vehicle id="WE_122" type="0" route="WE" depart="147" />
<vehicle id="EW_123" type="0" route="EW" depart="147" />
<vehicle id="EW_124" type="0" route="EW" depart="148" />
<vehicle id="EW_125" type="0" route="EW" depart="149" />
<vehicle id="EW_126" type="0" route="EW" depart="152" />
<vehicle id="EW_127" type="0" route="EW" depart="154" />
<vehicle id="EW_128" type="0" route="EW" depart="155" />
<vehicle id="WE_129" type="0" route="WE" depart="156" />
<vehicle id="EW_130" type="0" route="EW" depart="156" />
<vehicle id="WE_131" type="0" route="WE" depart="157" />
<vehicle id="WE_132" type="0" route="WE" depart="159" />
<vehicle id="NS_133" type="0" route="NS" depart="159" />
<vehicle id="WE_134" type="0" route="WE" depart="162" />
<vehicle id="WE_135" type="0" route="WE" depart="164" />
<vehicle id="EW_136" type="0" route="EW" depart="166" />
<vehicle id="WE_137" type="0" route="WE" depart="167" />
<vehicle id="WE_138" type="0" route="WE" depart="169" />
<vehicle id="EW_139" type="0" route="EW" depart="169" />
<vehicle id="WE_140" type="0" route="WE" depart="170" />
<vehicle id="WE_141" type="0" route="WE" depart="171" />
<vehicle id="EW_142" type="0" route="EW" depart="172" />
<vehicle id="WE_143" type="0" route="WE" depart="173" />
<vehicle id="WE_144" type="0" route="WE" depart="174" />
<vehicle id="WE_145" type="0" route="WE" depart="175" />
<vehicle id="EW_146" type="0" route="EW" depart="176" />
<vehicle id="WE_147" type="0" route="WE" depart="177" />
<vehicle id="EW_148" type="0" route="EW" depart="178" />
<vehicle id="NS_149" type="0" route="NS" depart="178" />
<vehicle id="EW_150" type="0" route="EW" depart="179" />
<vehicle id="WE_151" type="0" route="WE" depart="180" />
<vehicle id="EW_152" type="0" route="EW" depart="181" />
<vehicle id="WE_153" type="0" route="WE" depart="182" />
<vehicle id="EW_154" type="0" route="EW" depart="183" />
<vehicle id="WE_155" type="0" route="WE" depart="184" />
<vehicle id="NS_156" type="0" route="NS" depart="185" />
<vehicle id="EW_157" type="0" route="EW" depart="186" />
<vehicle id="WE_158" type="0" route="WE" depart="187" />
<vehicle id="EW_159" type="0" route="EW" depart="188" />
<vehicle id="WE_160" type="0" route="WE" depart="190" />
<vehicle id="EW_161" type="0" route="EW" depart="190" />
<vehicle id="NS_162" type="0" route="NS" depart="191" />
<vehicle id="WE_163" type="0" route="WE" depart="192" />
<vehicle id="EW_164" type="0" route="EW" depart="192" />
<vehicle id="WE_165" type="0" route="WE" depart="193" />
<vehicle id="WE_166" type="0" route="WE" depart="194" />
<vehicle id="WE_167" type="0" route="WE" depart="195" />
<vehicle id="EW_168" type="0" route="EW" depart="195" />
<vehicle id="WE_169" type="0" route="WE" depart="196" />
<vehicle id="WE_170" type="0" route="WE" depart="199" />
<vehicle id="WE_171" type="0" route="WE" depart="200" />
<vehicle id="WE_172" type="0" route="WE" depart="202" />
<vehicle id="WE_173" type="0" route="WE" depart="203" />
<vehicle id="WE_174" type="0" route="WE" depart="205" />
<vehicle id="EW_175" type="0" route="EW" depart="205" />
<vehicle id="WE_176" type="0" route="WE" depart="206" />
<vehicle id="EW_177" type="0" route="EW" depart="206" />
<vehicle id="EW_178" type="0" route="EW" depart="207" />
<vehicle id="WE_179" type="0" route="WE" depart="208" />
<vehicle id="EW_180" type="0" route="EW" depart="208" />
<vehicle id="WE_181" type="0" route="WE" depart="209" />
<vehicle id="EW_182" type="0" route="EW" depart="209" />
<vehicle id="EW_183" type="0" route="EW" depart="210" />
<vehicle id="WE_184" type="0" route="WE" depart="211" />
<vehicle id="EW_185" type="0" route="EW" depart="212" />
<vehicle id="NS_186" type="0" route="NS" depart="213" />
<vehicle id="EW_187" type="0" route="EW" depart="216" />
<vehicle id="EW_188" type="0" route="EW" depart="217" />
<vehicle id="WE_189" type="0" route="WE" depart="219" />
<vehicle id="WE_190" type="0" route="WE" depart="221" />
<vehicle id="EW_191" type="0" route="EW" depart="221" />
<vehicle id="EW_192" type="0" route="EW" depart="223" />
<vehicle id="NS_193" type="0" route="NS" depart="223" />
<vehicle id="WE_194" type="0" route="WE" depart="227" />
<vehicle id="NS_195" type="0" route="NS" depart="227" />
<vehicle id="WE_196" type="0" route="WE" depart="228" />
<vehicle id="EW_197" type="0" route="EW" depart="229" />
<vehicle id="EW_198" type="0" route="EW" depart="230" />
<vehicle id="WE_199" type="0" route="WE" depart="233" />
<vehicle id="WE_200" type="0" route="WE" depart="234" />
<vehicle id="EW_201" type="0" route="EW" depart="235" />
<vehicle id="WE_202" type="0" route="WE" depart="236" />
<vehicle id="WE_203" type="0" route="WE" depart="237" />
<vehicle id="EW_204" type="0" route="EW" depart="239" />
<vehicle id="EW_205" type="0" route="EW" depart="240" />
<vehicle id="WE_206" type="0" route="WE" depart="241" />
<vehicle id="WE_207" type="0" route="WE" depart="242" />
<vehicle id="EW_208" type="0" route="EW" depart="242" />
<vehicle id="EW_209" type="0" route="EW" depart="243" />
<vehicle id="WE_210" type="0" route="WE" depart="244" />
<vehicle id="WE_211" type="0" route="WE" depart="245" />
<vehicle id="EW_212" type="0" route="EW" depart="246" />
<vehicle id="WE_213" type="0" route="WE" depart="247" />
<vehicle id="EW_214" type="0" route="EW" depart="248" />
<vehicle id="EW_215" type="0" route="EW" depart="250" />
<vehicle id="EW_216" type="0" route="EW" depart="251" />
<vehicle id="WE_217" type="0" route="WE" depart="252" />
<vehicle id="EW_218" type="0" route="EW" depart="252" />
<vehicle id="NS_219" type="0" route="NS" depart="253" />
<vehicle id="EW_220" type="0" route="EW" depart="255" />
<vehicle id="NS_221" type="0" route="NS" depart="255" />
<vehicle id="NS_222" type="0" route="NS" depart="257" />
<vehicle id="WE_223" type="0" route="WE" depart="259" />
<vehicle id="WE_224" type="0" route="WE" depart="260" />
<vehicle id="WE_225" type="0" route="WE" depart="261" />
<vehicle id="NS_226" type="0" route="NS" depart="261" />
<vehicle id="EW_227" type="0" route="EW" depart="262" />
<vehicle id="WE_228" type="0" route="WE" depart="263" />
<vehicle id="NS_229" type="0" route="NS" depart="263" />
<vehicle id="WE_230" type="0" route="WE" depart="264" />
<vehicle id="EW_231" type="0" route="EW" depart="265" />
<vehicle id="WE_232" type="0" route="WE" depart="266" />
<vehicle id="EW_233" type="0" route="EW" depart="267" />
<vehicle id="EW_234" type="0" route="EW" depart="268" />
<vehicle id="WE_235" type="0" route="WE" depart="269" />
<vehicle id="EW_236" type="0" route="EW" depart="270" />
<vehicle id="EW_237" type="0" route="EW" depart="271" />
<vehicle id="WE_238" type="0" route="WE" depart="273" />
<vehicle id="EW_239" type="0" route="EW" depart="273" />
<vehicle id="WE_240" type="0" route="WE" depart="278" />
<vehicle id="WE_241" type="0" route="WE" depart="280" />
<vehicle id="WE_242" type="0" route="WE" depart="281" />
<vehicle id="WE_243" type="0" route="WE" depart="282" />
<vehicle id="EW_244" type="0" route="EW" depart="284" />
<vehicle id="EW_245" type="0" route="EW" depart="285" />
<vehicle id="EW_246" type="0" route="EW" depart="286" />
<vehicle id="WE_247" type="0" route="WE" depart="287" />
<vehicle id="EW_248" type="0" route="EW" depart="287" />
<vehicle id="WE_249" type="0" route="WE" depart="292" />
<vehicle id="EW_250" type="0" route="EW" depart="293" />
<vehicle id="WE_251" type="0" route="WE" depart="294" />
<vehicle id="EW_252" type="0" route="EW" depart="294" />
<vehicle id="WE_253" type="0" route="WE" depart="295" />
<vehicle id="WE_254" type="0" route="WE" depart="297" />
<vehicle id="EW_255" type="0" route="EW" depart="299" />
<vehicle id="WE_256" type="0" route="WE" depart="302" />
<vehicle id="NS_257" type="0" route="NS" depart="302" />
<vehicle id="EW_258" type="0" route="EW" depart="303" />
<vehicle id="WE_259" type="0" route="WE" depart="304" />
<vehicle id="NS_260" type="0" route="NS" depart="304" />
<vehicle id="WE_261" type="0" route="WE" depart="307" />
<vehicle id="EW_262" type="0" route="EW" depart="307" />
<vehicle id="WE_263" type="0" route="WE" depart="308" />
<vehicle id="WE_264" type="0" route="WE" depart="310" />
<vehicle id="NS_265" type="0" route="NS" depart="310" />
<vehicle id="EW_266" type="0" route="EW" depart="311" />
<vehicle id="WE_267" type="0" route="WE" depart="313" />
<vehicle id="EW_268" type="0" route="EW" depart="314" />
<vehicle id="WE_269" type="0" route="WE" depart="315" />
<vehicle id="EW_270" type="0" route="EW" depart="315" />
<vehicle id="EW_271" type="0" route="EW" depart="316" />
<vehicle id="EW_272" type="0" route="EW" depart="318" />
<vehicle id="WE_273" type="0" route="WE" depart="321" />
<vehicle id="WE_274" type="0" route="WE" depart="322" />
<vehicle id="EW_275" type="0" route="EW" depart="325" />
<vehicle id="WE_276" type="0" route="WE" depart="326" />
<vehicle id="EW_277" type="0" route="EW" depart="326" />
<vehicle id="WE_278" type="0" route="WE" depart="327" />
<vehicle id="EW_279" type="0" route="EW" depart="327" />
<vehicle id="NS_280" type="0" route="NS" depart="327" />
<vehicle id="WE_281" type="0" route="WE" depart="328" />
<vehicle id="WE_282" type="0" route="WE" depart="329" />
<vehicle id="EW_283" type="0" route="EW" depart="330" />
<vehicle id="WE_284" type="0" route="WE" depart="331" />
<vehicle id="WE_285" type="0" route="WE" depart="332" />
<vehicle id="WE_286" type="0" route="WE" depart="333" />
<vehicle id="EW_287" type="0" route="EW" depart="333" />
<vehicle id="WE_288" type="0" route="WE" depart="334" />
<vehicle id="EW_289" type="0" route="EW" depart="334" />
<vehicle id="WE_290" type="0" route="WE" depart="336" />
<vehicle id="EW_291" type="0" route="EW" depart="336" />
<vehicle id="WE_292" type="0" route="WE" depart="337" />
<vehicle id="NS_293" type="0" route="NS" depart="338" />
<vehicle id="EW_294" type="0" route="EW" depart="339" />
<vehicle id="NS_295" type="0" route="NS" depart="339" />
<vehicle id="WE_296" type="0" route="WE" depart="340" />
<vehicle id="EW_297" type="0" route="EW" depart="341" />
<vehicle id="EW_298" type="0" route="EW" depart="344" />
<vehicle id="WE_299" type="0" route="WE" depart="345" />
<vehicle id="NS_300" type="0" route="NS" depart="345" />
<vehicle id="WE_301" type="0" route="WE" depart="347" />
<vehicle id="EW_302" type="0" route="EW" depart="347" />
<vehicle id="NS_303" type="0" route="NS" depart="347" />
<vehicle id="WE_304" type="0" route="WE" depart="348" />
<vehicle id="WE_305" type="0" route="WE" depart="350" />
<vehicle id="WE_306" type="0" route="WE" depart="351" />
<vehicle id="EW_307" type="0" route="EW" depart="352" />
<vehicle id="EW_308" type="0" route="EW" depart="353" />
<vehicle id="WE_309" type="0" route="WE" depart="354" />
<vehicle id="EW_310" type="0" route="EW" depart="357" />
<vehicle id="EW_311" type="0" route="EW" depart="361" />
<vehicle id="EW_312" type="0" route="EW" depart="363" />
<vehicle id="NS_313" type="0" route="NS" depart="363" />
<vehicle id="WE_314" type="0" route="WE" depart="366" />
<vehicle id="WE_315" type="0" route="WE" depart="367" />
<vehicle id="EW_316" type="0" route="EW" depart="367" />
<vehicle id="NS_317" type="0" route="NS" depart="368" />
<vehicle id="EW_318" type="0" route="EW" depart="372" />
<vehicle id="WE_319" type="0" route="WE" depart="373" />
<vehicle id="WE_320" type="0" route="WE" depart="374" />
<vehicle id="EW_321" type="0" route="EW" depart="374" />
<vehicle id="WE_322" type="0" route="WE" depart="375" />
<vehicle id="EW_323" type="0" route="EW" depart="376" />
<vehicle id="NS_324" type="0" route="NS" depart="376" />
<vehicle id="WE_325" type="0" route="WE" depart="377" />
<vehicle id="EW_326" type="0" route="EW" depart="378" />
<vehicle id="EW_327" type="0" route="EW" depart="380" />
<vehicle id="EW_328" type="0" route="EW" depart="381" />
<vehicle id="WE_329" type="0" route="WE" depart="383" />
<vehicle id="EW_330" type="0" route="EW" depart="383" />
<vehicle id="WE_331" type="0" route="WE" depart="384" />
<vehicle id="EW_332" type="0" route="EW" depart="385" />
<vehicle id="WE_333" type="0" route="WE" depart="386" />
<vehicle id="NS_334" type="0" route="NS" depart="386" />
<vehicle id="EW_335" type="0" route="EW" depart="387" />
<vehicle id="EW_336" type="0" route="EW" depart="388" />
<vehicle id="EW_337" type="0" route="EW" depart="389" />
<vehicle id="NS_338" type="0" route="NS" depart="390" />
<vehicle id="EW_339" type="0" route="EW" depart="392" />
<vehicle id="WE_340" type="0" route="WE" depart="393" />
<vehicle id="EW_341" type="0" route="EW" depart="393" />
<vehicle id="WE_342" type="0" route="WE" depart="394" />
<vehicle id="NS_343" type="0" route="NS" depart="395" />
<vehicle id="WE_344" type="0" route="WE" depart="396" />
<vehicle id="WE_345" type="0" route="WE" depart="397" />
<vehicle id="EW_346" type="0" route="EW" depart="397" />
<vehicle id="EW_347" type="0" route="EW" depart="398" />
<vehicle id="EW_348" type="0" route="EW" depart="399" />
<vehicle id="NS_349" type="0" route="NS" depart="399" />
<vehicle id="EW_350" type="0" route="EW" depart="400" />
<vehicle id="WE_351" type="0" route="WE" depart="401" />
<vehicle id="EW_352" type="0" route="EW" depart="402" />
<vehicle id="EW_353" type="0" route="EW" depart="404" />
<vehicle id="NS_354" type="0" route="NS" depart="404" />
<vehicle id="EW_355" type="0" route="EW" depart="406" />
<vehicle id="WE_356" type="0" route="WE" depart="408" />
<vehicle id="EW_357" type="0" route="EW" depart="409" />
<vehicle id="WE_358" type="0" route="WE" depart="412" />
<vehicle id="EW_359" type="0" route="EW" depart="412" />
<vehicle id="WE_360" type="0" route="WE" depart="413" />
<vehicle id="EW_361" type="0" route="EW" depart="413" />
<vehicle id="NS_362" type="0" route="NS" depart="415" />
<vehicle id="WE_363" type="0" route="WE" depart="417" />
<vehicle id="EW_364" type="0" route="EW" depart="418" />
<vehicle id="WE_365" type="0" route="WE" depart="419" />
<vehicle id="EW_366" type="0" route="EW" depart="420" />
<vehicle id="WE_367" type="0" route="WE" depart="421" />
<vehicle id="EW_368" type="0" route="EW" depart="423" />
<vehicle id="EW_369" type="0" route="EW" depart="424" />
<vehicle id="EW_370" type="0" route="EW" depart="425" />
<vehicle id="EW_371" type="0" route="EW" depart="426" />
<vehicle id="WE_372" type="0" route="WE" depart="427" />
<vehicle id="EW_373" type="0" route="EW" depart="430" />
<vehicle id="EW_374" type="0" route="EW" depart="431" />
<vehicle id="EW_375" type="0" route="EW" depart="432" />
<vehicle id="WE_376" type="0" route="WE" depart="433" />
<vehicle id="EW_377" type="0" route="EW" depart="434" />
<vehicle id="NS_378" type="0" route="NS" depart="435" />
<vehicle id="EW_379" type="0" route="EW" depart="437" />
<vehicle id="WE_380" type="0" route="WE" depart="438" />
<vehicle id="EW_381" type="0" route="EW" depart="438" />
<vehicle id="WE_382" type="0" route="WE" depart="439" />
<vehicle id="EW_383" type="0" route="EW" depart="440" />
<vehicle id="WE_384" type="0" route="WE" depart="441" />
<vehicle id="EW_385" type="0" route="EW" depart="442" />
<vehicle id="NS_386" type="0" route="NS" depart="442" />
<vehicle id="WE_387" type="0" route="WE" depart="443" />
<vehicle id="WE_388" type="0" route="WE" depart="446" />
<vehicle id="EW_389" type="0" route="EW" depart="448" />
<vehicle id="EW_390" type="0" route="EW" depart="449" />
<vehicle id="EW_391" type="0" route="EW" depart="450" />
<vehicle id="EW_392" type="0" route="EW" depart="451" />
<vehicle id="EW_393" type="0" route="EW" depart="452" />
<vehicle id="NS_394" type="0" route="NS" depart="452" />
<vehicle id="EW_395" type="0" route="EW" depart="453" />
<vehicle id="NS_396" type="0" route="NS" depart="453" />
<vehicle id="WE_397" type="0" route="WE" depart="454" />
<vehicle id="WE_398" type="0" route="WE" depart="455" />
<vehicle id="WE_399" type="0" route="WE" depart="457" />
<vehicle id="WE_400" type="0" route="WE" depart="458" />
<vehicle id="WE_401" type="0" route="WE" depart="459" />
<vehicle id="EW_402" type="0" route="EW" depart="459" />
<vehicle id="WE_403" type="0" route="WE" depart="460" />
<vehicle id="NS_404" type="0" route="NS" depart="460" />
<vehicle id="WE_405" type="0" route="WE" depart="461" />
<vehicle id="EW_406" type="0" route="EW" depart="462" />
<vehicle id="WE_407" type="0" route="WE" depart="463" />
<vehicle id="NS_408" type="0" route="NS" depart="463" />
<vehicle id="WE_409" type="0" route="WE" depart="464" />
<vehicle id="WE_410" type="0" route="WE" depart="466" />
<vehicle id="EW_411" type="0" route="EW" depart="466" />
<vehicle id="WE_412" type="0" route="WE" depart="468" />
<vehicle id="EW_413" type="0" route="EW" depart="468" />
<vehicle id="NS_414" type="0" route="NS" depart="469" />
<vehicle id="NS_415" type="0" route="NS" depart="471" />
<vehicle id="WE_416" type="0" route="WE" depart="472" />
<vehicle id="NS_417" type="0" route="NS" depart="472" />
<vehicle id="WE_418" type="0" route="WE" depart="474" />
<vehicle id="EW_419" type="0" route="EW" depart="474" />
<vehicle id="WE_420" type="0" route="WE" depart="475" />
<vehicle id="EW_421" type="0" route="EW" depart="475" />
<vehicle id="NS_422" type="0" route="NS" depart="476" />
<vehicle id="EW_423" type="0" route="EW" depart="477" />
<vehicle id="WE_424" type="0" route="WE" depart="478" />
<vehicle id="EW_425" type="0" route="EW" depart="478" />
<vehicle id="WE_426" type="0" route="WE" depart="480" />
<vehicle id="WE_427" type="0" route="WE" depart="481" />
<vehicle id="EW_428" type="0" route="EW" depart="481" />
<vehicle id="EW_429" type="0" route="EW" depart="482" />
<vehicle id="NS_430" type="0" route="NS" depart="482" />
<vehicle id="WE_431" type="0" route="WE" depart="484" />
<vehicle id="EW_432" type="0" route="EW" depart="486" />
<vehicle id="EW_433" type="0" route="EW" depart="487" />
<vehicle id="NS_434" type="0" route="NS" depart="487" />
<vehicle id="EW_435" type="0" route="EW" depart="489" />
<vehicle id="WE_436" type="0" route="WE" depart="490" />
<vehicle id="NS_437" type="0" route="NS" depart="490" />
<vehicle id="WE_438" type="0" route="WE" depart="492" />
<vehicle id="WE_439" type="0" route="WE" depart="493" />
<vehicle id="EW_440" type="0" route="EW" depart="493" />
<vehicle id="WE_441" type="0" route="WE" depart="495" />
<vehicle id="EW_442" type="0" route="EW" depart="496" />
<vehicle id="WE_443" type="0" route="WE" depart="497" />
<vehicle id="EW_444" type="0" route="EW" depart="498" />
<vehicle id="WE_445" type="0" route="WE" depart="499" />
<vehicle id="WE_446" type="0" route="WE" depart="500" />
<vehicle id="WE_447" type="0" route="WE" depart="502" />
<vehicle id="EW_448" type="0" route="EW" depart="503" />
<vehicle id="EW_449" type="0" route="EW" depart="504" />
<vehicle id="WE_450" type="0" route="WE" depart="505" />
<vehicle id="EW_451" type="0" route="EW" depart="506" />
<vehicle id="WE_452" type="0" route="WE" depart="507" />
<vehicle id="WE_453" type="0" route="WE" depart="509" />
<vehicle id="WE_454" type="0" route="WE" depart="510" />
<vehicle id="EW_455" type="0" route="EW" depart="510" />
<vehicle id="NS_456" type="0" route="NS" depart="510" />
<vehicle id="WE_457" type="0" route="WE" depart="512" />
<vehicle id="EW_458" type="0" route="EW" depart="512" />
<vehicle id="NS_459" type="0" route="NS" depart="513" />
<vehicle id="WE_460" type="0" route="WE" depart="514" />
<vehicle id="EW_461" type="0" route="EW" depart="514" />
<vehicle id="WE_462" type="0" route="WE" depart="515" />
<vehicle id="EW_463" type="0" route="EW" depart="515" />
<vehicle id="WE_464" type="0" route="WE" depart="516" />
<vehicle id="EW_465" type="0" route="EW" depart="516" />
<vehicle id="WE_466" type="0" route="WE" depart="518" />
<vehicle id="NS_467" type="0" route="NS" depart="518" />
<vehicle id="WE_468" type="0" route="WE" depart="519" />
<vehicle id="WE_469" type="0" route="WE" depart="521" />
<vehicle id="EW_470" type="0" route="EW" depart="521" />
<vehicle id="EW_471" type="0" route="EW" depart="524" />
<vehicle id="EW_472" type="0" route="EW" depart="527" />
<vehicle id="WE_473" type="0" route="WE" depart="528" />
<vehicle id="EW_474" type="0" route="EW" depart="528" />
<vehicle id="EW_475" type="0" route="EW" depart="530" />
<vehicle id="EW_476" type="0" route="EW" depart="531" />
<vehicle id="EW_477" type="0" route="EW" depart="533" />
<vehicle id="WE_478" type="0" route="WE" depart="534" />
<vehicle id="EW_479" type="0" route="EW" depart="534" />
<vehicle id="WE_480" type="0" route="WE" depart="535" />
<vehicle id="EW_481" type="0" route="EW" depart="535" />
<vehicle id="WE_482" type="0" route="WE" depart="536" />
<vehicle id="WE_483" type="0" route="WE" depart="539" />
<vehicle id="WE_484" type="0" route="WE" depart="540" />
<vehicle id="EW_485" type="0" route="EW" depart="540" />
<vehicle id="EW_486" type="0" route="EW" depart="541" />
<vehicle id="WE_487" type="0" route="WE" depart="542" />
<vehicle id="EW_488" type="0" route="EW" depart="543" />
<vehicle id="WE_489" type="0" route="WE" depart="544" />
<vehicle id="WE_490" type="0" route="WE" depart="545" />
<vehicle id="EW_491" type="0" route="EW" depart="545" />
<vehicle id="WE_492" type="0" route="WE" depart="549" />
<vehicle id="EW_493" type="0" route="EW" depart="550" />
<vehicle id="WE_494" type="0" route="WE" depart="552" />
<vehicle id="EW_495" type="0" route="EW" depart="552" />
<vehicle id="WE_496" type="0" route="WE" depart="554" />
<vehicle id="WE_497" type="0" route="WE" depart="557" />
<vehicle id="WE_498" type="0" route="WE" depart="558" />
<vehicle id="WE_499" type="0" route="WE" depart="560" />
<vehicle id="EW_500" type="0" route="EW" depart="560" />
<vehicle id="WE_501" type="0" route="WE" depart="561" />
<vehicle id="NS_502" type="0" route="NS" depart="561" />
<vehicle id="EW_503" type="0" route="EW" depart="563" />
<vehicle id="EW_504" type="0" route="EW" depart="564" />
<vehicle id="WE_505" type="0" route="WE" depart="565" />
<vehicle id="EW_506" type="0" route="EW" depart="565" />
<vehicle id="EW_507" type="0" route="EW" depart="566" />
<vehicle id="EW_508" type="0" route="EW" depart="567" />
<vehicle id="WE_509" type="0" route="WE" depart="568" />
<vehicle id="EW_510" type="0" route="EW" depart="569" />
<vehicle id="WE_511" type="0" route="WE" depart="570" />
<vehicle id="EW_512" type="0" route="EW" depart="572" />
<vehicle id="WE_513" type="0" route="WE" depart="573" />
<vehicle id="EW_514" type="0" route="EW" depart="573" />
<vehicle id="WE_515" type="0" route="WE" depart="574" />
<vehicle id="EW_516" type="0" route="EW" depart="574" />
<vehicle id="WE_517" type="0" route="WE" depart="576" />
<vehicle id="EW_518" type="0" route="EW" depart="576" />
<vehicle id="WE_519" type="0" route="WE" depart="577" />
<vehicle id="EW_520" type="0" route="EW" depart="578" />
<vehicle id="WE_521" type="0" route="WE" depart="579" />
<vehicle id="EW_522" type="0" route="EW" depart="579" />